xrun(64): 19.03-s013: (c) Copyright 1995-2019 Cadence Design Systems, Inc.
TOOL:	xrun(64)	19.03-s013: Started on Nov 21, 2020 at 15:43:53 CET
xrun
	./amsSim.scs
	-spectre_args "+ms ++aps=liberal"
	-f verilogFiles.f
		./Testbench.v
	-access +rwc
	-64bit
	-gui
	-s
Recompiling... reason: unable to stat '/.//users/micas/jvanassc/Vakantie Job Bram Veraverbeke 2020/swiptmixedsignalsim/Simvision_mixed_signal/Documentation/Analog_example_circuit_blank/Testbench.v'.
xrun: *N,SPCNTC: The program encountered one or more notices while processing the input SPICE file(s) in the AMSD flow. For details, see the following messages.
amsspice: *Notice (amsSim.scs,29): For the 'portmap' statement, assuming
	  'autobus=yes' as the default type in the AMSD control block flow.
amsspice: *Notice: Using external port-bind file: 'analog_network.pb'
		Caching library 'worklib' ....... Done
	Elaborating the design hierarchy:
	Top level design units:
		toplevel
	Discipline resolution Pass...
	Building instance overlay tables: .................... Done
	Building instance specific data structures.
	Loading native compiled code:     .................... Done
	Design hierarchy summary:
		                 Instances  Unique
		Modules:                 2       2
		Simulation timescale:  1ps
	Writing initial simulation snapshot: worklib.toplevel:v
	Starting analog simulation engine...
AMSD: Using spectre solver with arguments: -ahdllibdir xcelium.d/AMSD/ahdlSimDB +ms ++aps=liberal.

Spectre (R) Circuit Simulator
Version 18.1.0.394.isr8 64bit -- 11 Jun 2019
Copyright (C) 1989-2019 Cadence Design Systems, Inc. All rights reserved worldwide. Cadence and Spectre are registered trademarks of Cadence Design Systems, Inc. All others are the property of their respective holders.

Includes RSA BSAFE(R) Cryptographic or Security Protocol Software from RSA Security, Inc.

User: r0761743   Host: vierre64-tmp3.esat.kuleuven.be   HostID: 570AAE14   PID: 32450
Memory  available: 543.3712 MB  physical: 63.1554 GB
Linux   : CentOS Linux release 7.9.2009 (Core)
CPU Type: Intel Xeon Processor (Skylake)
All processors running at 2194.8 MHz
        Socket: Processors
        0:       0,  1
        1:       2,  3
        2:       4,  5
        3:       6,  7
        4:       8,  9
        5:      10, 11
        6:      12, 13
        7:      14, 15
        8:      16, 17
        
System load averages (1min, 5min, 15min) : 14.6 %, 17.2 %, 16.9 %
HPC is enabled


Analog Kernel using -ANALOGCONTROL  ./amsSim.scs.
Command line:
    spectre ./amsSim.scs +config  \
        /esat/micas-data/software/Cadence/xcelium_19.03/tools.lnx86/spectre/etc/configs/ams.cfg  \
        -ahdllibdir xcelium.d/AMSD/ahdlSimDB +ms ++aps=liberal
Reading file:  /users/students/r0761743/Eagle/Simvision/Tutorial Files/Analog_example_circuit_blank_copy/amsSim.scs

Notice from spectre during circuit read-in.
    Configuration file used: `/esat/micas-data/software/Cadence/xcelium_19.03/tools.lnx86/spectre/etc/configs/ams.cfg'.

Reading file:  /users/students/r0761743/Eagle/Simvision/Tutorial Files/Analog_example_circuit_blank_copy/xcelium.d/AMSD/ams_spice_in/generated_skeleton_amscb.skl_vams
Reading file:  /esat/micas-data/software/Cadence/xcelium_19.03/tools.lnx86/spectre/etc/configs/mapsubckt.cfg
Reading file:  /esat/micas-data/software/Cadence/xcelium_19.03/tools.lnx86/spectre/etc/configs/spectre.cfg
Reading file:  /users/students/r0761743/Eagle/Simvision/Tutorial Files/Analog_example_circuit_blank_copy/ANALOG_NETWORK.spi
Reading file:  /users/students/r0761743/Eagle/Simvision/Tutorial Files/Analog_example_circuit_blank_copy/SmallSignalDiode.spi
Reading file:  /esat/micas-data/software/Cadence/xcelium_19.03/tools.lnx86/spectre/etc/configs/ms,ms#2.cfg
Reading file:  /esat/micas-data/software/Cadence/xcelium_19.03/tools.lnx86/spectre/etc/configs/ms,ms.cfg


Reading file:  /esat/micas-data/software/Cadence/xcelium_19.03/tools.lnx86/spectre/etc/configs/ams.cfg
Time for NDB Parsing: CPU = 229.951 ms, elapsed = 919.639 ms.
Time accumulated: CPU = 503.756 ms, elapsed = 919.644 ms.
Peak resident memory used = 86.7 Mbytes.

xcelium> 
-------------------------------------
Relinquished control to SimVision...

xcelium> source /esat/micas-data/software/Cadence/xcelium_19.03/tools/xcelium/files/xmsimrc
xcelium> # Restoring simulation environment...
xcelium> input -quiet .reinvoke.sim
xcelium> file delete .reinvoke.sim
xcelium> run

Warning from spectre during hierarchy flattening.
    WARNING (SFE-30): "./ANALOG_NETWORK.spi" 6: Parameter `post', specified for primitive `options', has been ignored because it is an invalid instance parameter. Specify a valid instance parameter and rerun the simulation. Type `spectre -h options' to get more information on valid instance parameters.

Time for Elaboration: CPU = 120.447 ms, elapsed = 3.04186 s.
Time accumulated: CPU = 624.349 ms, elapsed = 3.96165 s.
Peak resident memory used = 115 Mbytes.

Starting APS DC ...


Warning from spectre in `SmallSignalDiode':`toplevel.analog_network_inst.D1', in `worklib__ANALOG_NETWORK__spice_skeleton__0x10000001':`toplevel.analog_network_inst', in `worklib__toplevel__v':`toplevel', during hierarchy flattening.
    WARNING (CMI-2362): toplevel.analog_network_inst.D1.DI_BAV5004LP: The value of `vj(pb)' at T = 27 C is 55e-03 V, which is too small. Clamped to 100e-03 V.

Time for EDB Visit::table model: CPU = 2.666 ms, elapsed = 2.66337 ms.
Time accumulated: CPU = 637.057 ms, elapsed = 4.22663 s.
Peak resident memory used = 117 Mbytes.


Time for EDB Visiting: CPU = 13.048 ms, elapsed = 265.32 ms.
Time accumulated: CPU = 637.565 ms, elapsed = 4.22713 s.
Peak resident memory used = 117 Mbytes.


Warning from spectre.
    WARNING (XPS-1006): No digital partition identified.
Notice from spectre.
    Using Spectre APS mode because no digital content has been detected. Spectre mixed-signal mode has been disabled.



Warning from spectre.
    WARNING (CMI-2362): toplevel.analog_network_inst.D1.DI_BAV5004LP: The value of `vj(pb)' at T = 27 C is 55e-03 V, which is too small. Clamped to 100e-03 V.
    WARNING (SPECTRE-8281): `__cds_internal_stub_node__' is not a node nor an instance name.
    WARNING (SPECTRE-8286): Ignoring invalid item `__cds_internal_stub_node__' in save statement.
        Node is dangling or part of a dangling chain.
Notice from spectre during topology check.
    Only one connection to node `toplevel.analog_network_inst.param_freq'.
    Multithreading is disabled due to the size of the design being too small.


Global user options:
      addflowsuffix = yes
        dotprobefmt = hier
               save = allpub

Scoped user options:

Circuit inventory:
              nodes 5
              diode 1     
           resistor 1     
            vsource 3     

Analysis and control statement inventory:
                 dc 1     
               tran 1     

Output statements:
             .probe 0     
           .measure 0     
               save 0     


Notice from spectre.
    1 vsources are short because their absolute value is less than or equal to 'vabsshort'.
    Fast APS Enabled ( ++aps ).

Time for parsing: CPU = 6.588 ms, elapsed = 8.74305 ms.
Time accumulated: CPU = 644.249 ms, elapsed = 4.23597 s.
Peak resident memory used = 120 Mbytes.

~~~~~~~~~~~~~~~~~~~~~~
Pre-Simulation Summary
~~~~~~~~~~~~~~~~~~~~~~
   -   MS Table model. VDD=0V used for XPS table model creation, to overwrite 
                 tmopt options vdd=val
   -   MS Circuit partitions: 0% transistors and 0% nodes are identified as digital partitions.
             One of the following solutions may improve the digital detection.
                 Manually define internal digital power supply nodes and voltages.
                        opt1 options ms_vpn=[VDD_DIG 1.2 VDD_DIG1 3.3]
                        opt2 options ms_vgnd=[VSS]
                 For complex device models use the MS macro model option.
                        opt3 options macro_mos=[pmos_subckt nmos_subckt]
                 Use the cktpreset=digital option to force subcircuits into digital.
                        opt4 options cktpreset=digital subckt=[subckt_def_name]
                        opt5 options cktpreset=digital inst=[subckt_inst_name]
~~~~~~~~~~~~~~~~~~~~~~

Warning from spectre.
    WARNING (SPECTRE-16830): The 'DCsim' analysis of type 'dc' is skipped in XPS flow.
    WARNING (SPECTRE-16518): Arithmetic exception in analysis `DCsim' .

Total time required for dc analysis `DCsim': CPU = 100 us, elapsed = 97.0364 us.
Time accumulated: CPU = 655.751 ms, elapsed = 4.24784 s.
Peak resident memory used = 121 Mbytes.


Warning from spectre.
    WARNING (CMI-2015): Unable to open ic file `./amsSim.apsdc'.
        No such file or directory.


**************************************************
Transient Analysis `Transim': time = (0 s -> 4 ms)
**************************************************

Notice from spectre during transient analysis `Transim'.
    The value of parameter 'freq' was set to 50000 at time 0 s.
Warning from spectre during transient analysis `Transim'.
    WARNING (CMI-2362): toplevel.analog_network_inst.D1.DI_BAV5004LP: The value of `vj(pb)' at T = 27 C is 55e-03 V, which is too small. Clamped to 100e-03 V.

DC simulation time: CPU = 899 us, elapsed = 916.004 us.
Important parameter values:
    start = 0 s
    outputstart = 0 s
    stop = 4 ms
    step = 4 us
    maxstep = 80 us
    ic = all
    useprevic = no
    skipdc = no
    reltol = 10e-03
    abstol(V) = 1 uV
    abstol(I) = 1 pA
    temp = 27 C
    tnom = 27 C
    tempeffects = all
    errpreset = liberal
    method = trapgear2
    lteratio = 3.5
    relref = sigglobal
    cmin = 0 F
    gmin = 1 pS
    rabsshort = 1 mOhm
    compression = wildcardonly


Wildcard match summary:
              probe v(*) :               4     

Output and IC/nodeset summary:
                 save   2       (current)
                 save   3       (voltage)


Notice from spectre at time = 2 ms during transient analysis `Transim'.
    The value of parameter 'freq' was set to 25000 at time 0.002 s.
Warning from spectre at time = 2 ms during transient analysis `Transim'.
    WARNING (CMI-2362): toplevel.analog_network_inst.D1.DI_BAV5004LP: The value of `vj(pb)' at T = 27 C is 55e-03 V, which is too small. Clamped to 100e-03 V.

The analog simulator has reached stop time, please use `analog -stop <new stop time>' to extend the analog stop time.
Simulation stopped via transient analysis stoptime at time 4 MS
Memory Usage - Current physical: 126.9M, Current virtual: 842.4M
CPU Usage - 0.2s system + 0.8s user = 1.0s total (17.4% cpu)
xcelium> ^C
xcelium> exit

Number of accepted tran steps =             7923

Maximum value achieved for any signal of each quantity: 
V: V(toplevel.analog_network_inst.param_freq) = 50 kV
I: I(toplevel.analog_network_inst.Vpulse:p) = 110.3 mA
If your circuit contains signals of the same quantity that are vastly different in size (such as high voltage circuitry combined with low voltage control circuitry), you should consider specifying global option `bin_relref=yes'.

~~~~~~~~~~~~~~~~~~~~~~~~~~~~~~~~~
Post-Transient Simulation Summary
~~~~~~~~~~~~~~~~~~~~~~~~~~~~~~~~~
   -   The circuit contains signals of the voltage > 10V, consider to set highvoltage=yes to get better accuracy and convergence ability.
~~~~~~~~~~~~~~~~~~~~~~~~~~~~~~~~~


During simulation, the CPU load for active processors is :
        Spectre  8 (10.9 %)      9 (13.4 %)     
        Other    0 (9.4 %)       1 (7.8 %)       2 (14.3 %)      3 (15.0 %)
                 4 (10.4 %)      5 (54.4 %)      6 (14.3 %)      7 (8.2 %)
                10 (8.2 %)      11 (8.3 %)      12 (8.5 %)      13 (14.7 %)
                14 (13.0 %)     15 (8.5 %)      16 (38.5 %)     17 (91.0 %)
Initial condition solution time: CPU = 973 us, elapsed = 994.205 us.

**** AMSD: Mixed-Signal Activity Statistics ****
Number of A-to-D events:                       0
  Number of A-to-D events in IEs:              0
Number of D-to-A events:                       0
  Number of D-to-A events in IEs:              0
Number of VHDL-AMS Breaks:                     0


Notice from spectre during transient analysis `Transim'.
    The value of parameter 'freq' has been reset to the original value 50000.
Warning from spectre during transient analysis `Transim'.
    WARNING (CMI-2362): toplevel.analog_network_inst.D1.DI_BAV5004LP: The value of `vj(pb)' at T = 27 C is 55e-03 V, which is too small. Clamped to 100e-03 V.

Intrinsic tran analysis time:    CPU = 6.96729 s, elapsed = 329.445 s.
Total time required for tran analysis `Transim': CPU = 6.97737 s, elapsed = 330.847 s (5m  30.8s).
Time accumulated: CPU = 7.63375 s, elapsed = 335.162 s (5m  35.2s).
Peak resident memory used = 128 Mbytes.

Simulation complete via transient analysis stoptime at time 4 MS

Aggregate audit (3:49:33 PM, Sat Nov 21, 2020):
Time used: CPU = 7.64 s, elapsed = 335 s (5m  35.2s), util. = 2.28%.
Time spent in licensing: elapsed = 15.4 ms.
Peak memory used = 128 Mbytes.
Simulation started at: 3:43:58 PM, Sat Nov 21, 2020, ended at: 3:49:33 PM, Sat Nov 21, 2020, with elapsed time (wall clock): 335 s (5m  35.2s).
spectre completes with 0 errors, 12 warnings, and 10 notices.
TOOL:	xrun(64)	19.03-s013: Exiting on Nov 21, 2020 at 15:49:34 CET  (total: 00:05:41)
