
Spectre (R) Circuit Simulator
Version 18.1.0.394.isr8 64bit -- 11 Jun 2019
Copyright (C) 1989-2019 Cadence Design Systems, Inc. All rights reserved worldwide. Cadence and Spectre are registered trademarks of Cadence Design Systems, Inc. All others are the property of their respective holders.

Includes RSA BSAFE(R) Cryptographic or Security Protocol Software from RSA Security, Inc.

User: r0761743   Host: vierre64-tmp3.esat.kuleuven.be   HostID: 570AAE14   PID: 14309
Memory  available: 2.5692 GB  physical: 63.1554 GB
Linux   : CentOS Linux release 7.9.2009 (Core)
CPU Type: Intel Xeon Processor (Skylake)
All processors running at 2194.8 MHz
        Socket: Processors
        0:       0,  1
        1:       2,  3
        2:       4,  5
        3:       6,  7
        4:       8,  9
        5:      10, 11
        6:      12, 13
        7:      14, 15
        8:      16, 17
        
System load averages (1min, 5min, 15min) : 49.5 %, 45.0 %, 37.3 %


Simulating `./xcelium.d/AMSD/ams_spice_in/./.amsspice_pre.ckt' on vierre64-tmp3.esat.kuleuven.be at 8:35:30 PM, Sat Nov 21, 2020 (process id: 14309).
Current working directory: /users/students/r0761743/Eagle/Simvision/H_bridge_testbench
Environment variable:
    SPECTRE_DEFAULTS=
Command line:
    amsprimtool ./xcelium.d/AMSD/ams_spice_in/./.amsspice_pre.ckt  \
        -noraw -va,amsspice_pre -ahdllibdir  \
        xcelium.d/AMSD/ams_spice_in/ahdlSimDB =log  \
        ./xcelium.d/AMSD/ams_spice_in/./.amsspice_pre.ckt.log -token  \
        0001AF26C83A239465DFBB2CC00A229E73C4B63DFD3B60CB2080FE71B870359768D3A13CC50411B6749FEA2FE10B0F887DC39431F37A3ED44FD9EB2FB063238B7DC3BD10E17135D560C2E57EB76669CA29D3B96FDA5D50FB3080A83DEEB8537F10B0AE3CAB3F64C82187BF2AAD6166CF62D5FF7FF54865FB2A82A83DED3C50FB10B0A83DED3C50FB10B0F784813C3CFB4F090000428F

Loading /esat/micas-data/software/Cadence/xcelium_19.03/tools.lnx86/cmi/lib/64bit/5.0/libinfineon_sh.so ...
Loading /esat/micas-data/software/Cadence/xcelium_19.03/tools.lnx86/cmi/lib/64bit/5.0/libphilips_o_sh.so ...
Loading /esat/micas-data/software/Cadence/xcelium_19.03/tools.lnx86/cmi/lib/64bit/5.0/libphilips_sh.so ...
Loading /esat/micas-data/software/Cadence/xcelium_19.03/tools.lnx86/cmi/lib/64bit/5.0/libsparam_sh.so ...
Loading /esat/micas-data/software/Cadence/xcelium_19.03/tools.lnx86/cmi/lib/64bit/5.0/libstmodels_sh.so ...
Reading file:  /users/students/r0761743/Eagle/Simvision/H_bridge_testbench/xcelium.d/AMSD/ams_spice_in/.amsspice_pre.ckt
Reading file:  /esat/micas-data/software/Cadence/xcelium_19.03/tools.lnx86/spectre/etc/configs/mapsubckt.cfg
Reading file:  /esat/micas-data/software/Cadence/xcelium_19.03/tools.lnx86/spectre/etc/configs/spectre.cfg
Reading file:  /users/students/r0761743/Eagle/Simvision/H_bridge_testbench/amsSim.scs
Reading file:  /users/students/r0761743/Eagle/Simvision/H_bridge_testbench/ANALOG_NETWORK.spi
Reading file:  /users/students/r0761743/Eagle/Simvision/H_bridge_testbench/DI_10A01.spi
Reading file:  /users/students/r0761743/Eagle/Simvision/H_bridge_testbench/LM7812.spi
Reading file:  /users/students/r0761743/Eagle/Simvision/H_bridge_testbench/DI_BAV5004LP.spi
Reading file:  /users/students/r0761743/Eagle/Simvision/H_bridge_testbench/IR2110.spi
Reading file:  /users/students/r0761743/Eagle/Simvision/H_bridge_testbench/irfs_sl7440pbf.spi
Reading file:  /users/students/r0761743/Eagle/Simvision/H_bridge_testbench/LM2575_TRANS.spi
Reading file:  /users/students/r0761743/Eagle/Simvision/H_bridge_testbench/1N5819.spi
Time for NDB Parsing: CPU = 92.947 ms, elapsed = 156.494 ms.
Time accumulated: CPU = 149.154 ms, elapsed = 156.504 ms.
Peak resident memory used = 50.6 Mbytes.

