xrun(64): 19.03-s013: (c) Copyright 1995-2019 Cadence Design Systems, Inc.
TOOL:	xrun(64)	19.03-s013: Started on Nov 21, 2020 at 18:10:09 CET
xrun
	./amsSim.scs
	-spectre_args "+ms ++aps=liberal"
	-f verilogFiles.f
		./Testbench.v
	-access +rwc
	-64bit
	-gui
	-s
Recompiling... reason: unable to stat '/.//users/micas/jvanassc/Vakantie Job Bram Veraverbeke 2020/swiptmixedsignalsim/Simvision_mixed_signal/Documentation/Analog_example_circuit_blank/Testbench.v'.
xrun: *N,SPCNTC: The program encountered one or more notices while processing the input SPICE file(s) in the AMSD flow. For details, see the following messages.
amsspice: *Notice (amsSim.scs,29): For the 'portmap' statement, assuming
	  'autobus=yes' as the default type in the AMSD control block flow.
amsspice: *Notice: Using external port-bind file: 'analog_network.pb'
		Caching library 'worklib' ....... Done
	Elaborating the design hierarchy:
	Top level design units:
		toplevel
	Discipline resolution Pass...
	Building instance overlay tables: .................... Done
	Building instance specific data structures.
	Loading native compiled code:     .................... Done
	Design hierarchy summary:
		                 Instances  Unique
		Modules:                 2       2
		Simulation timescale:  1ps
	Writing initial simulation snapshot: worklib.toplevel:v
	Starting analog simulation engine...
AMSD: Using spectre solver with arguments: -ahdllibdir xcelium.d/AMSD/ahdlSimDB +ms ++aps=liberal.

Spectre (R) Circuit Simulator
Version 18.1.0.394.isr8 64bit -- 11 Jun 2019
Copyright (C) 1989-2019 Cadence Design Systems, Inc. All rights reserved worldwide. Cadence and Spectre are registered trademarks of Cadence Design Systems, Inc. All others are the property of their respective holders.

Includes RSA BSAFE(R) Cryptographic or Security Protocol Software from RSA Security, Inc.

User: r0761743   Host: vierre64-tmp3.esat.kuleuven.be   HostID: 570AAE14   PID: 31245
Memory  available: 4.0172 GB  physical: 63.1554 GB
Linux   : CentOS Linux release 7.9.2009 (Core)
CPU Type: Intel Xeon Processor (Skylake)
All processors running at 2194.8 MHz
        Socket: Processors
        0:       0,  1
        1:       2,  3
        2:       4,  5
        3:       6,  7
        4:       8,  9
        5:      10, 11
        6:      12, 13
        7:      14, 15
        8:      16, 17
        
System load averages (1min, 5min, 15min) : 14.3 %, 14.4 %, 15.3 %
HPC is enabled


Analog Kernel using -ANALOGCONTROL  ./amsSim.scs.
Command line:
    spectre ./amsSim.scs +config  \
        /esat/micas-data/software/Cadence/xcelium_19.03/tools.lnx86/spectre/etc/configs/ams.cfg  \
        -ahdllibdir xcelium.d/AMSD/ahdlSimDB +ms ++aps=liberal
Reading file:  /users/students/r0761743/Eagle/Simvision/Global_SWIPT/amsSim.scs

Notice from spectre during circuit read-in.
    Configuration file used: `/esat/micas-data/software/Cadence/xcelium_19.03/tools.lnx86/spectre/etc/configs/ams.cfg'.

Reading file:  /users/students/r0761743/Eagle/Simvision/Global_SWIPT/xcelium.d/AMSD/ams_spice_in/generated_skeleton_amscb.skl_vams
Reading file:  /esat/micas-data/software/Cadence/xcelium_19.03/tools.lnx86/spectre/etc/configs/mapsubckt.cfg
Reading file:  /esat/micas-data/software/Cadence/xcelium_19.03/tools.lnx86/spectre/etc/configs/spectre.cfg
Reading file:  /users/students/r0761743/Eagle/Simvision/Global_SWIPT/ANALOG_NETWORK.spi
Reading file:  /users/students/r0761743/Eagle/Simvision/Global_SWIPT/OPA2344.spi
Reading file:  /users/students/r0761743/Eagle/Simvision/Global_SWIPT/LM7812.spi
Reading file:  /users/students/r0761743/Eagle/Simvision/Global_SWIPT/DI_10A01.spi
Reading file:  /users/students/r0761743/Eagle/Simvision/Global_SWIPT/DI_BAV5004LP.spi
Reading file:  /users/students/r0761743/Eagle/Simvision/Global_SWIPT/IR2110.spi
Reading file:  /users/students/r0761743/Eagle/Simvision/Global_SWIPT/irfs_sl7440pbf.spi
Reading file:  /users/students/r0761743/Eagle/Simvision/Global_SWIPT/ST_BAT48.spi
Reading file:  /users/students/r0761743/Eagle/Simvision/Global_SWIPT/ina180a1.spi
Reading file:  /users/students/r0761743/Eagle/Simvision/Global_SWIPT/LM2575_TRANS.spi
Reading file:  /users/students/r0761743/Eagle/Simvision/Global_SWIPT/1N5819.spi
Reading file:  /esat/micas-data/software/Cadence/xcelium_19.03/tools.lnx86/spectre/etc/configs/ms,ms#2.cfg
Reading file:  /esat/micas-data/software/Cadence/xcelium_19.03/tools.lnx86/spectre/etc/configs/ms,ms.cfg


Reading file:  /esat/micas-data/software/Cadence/xcelium_19.03/tools.lnx86/spectre/etc/configs/ams.cfg
Time for NDB Parsing: CPU = 226.954 ms, elapsed = 836.703 ms.
Time accumulated: CPU = 501.564 ms, elapsed = 836.708 ms.
Peak resident memory used = 89 Mbytes.

xcelium> 
xcelium> source /esat/micas-data/software/Cadence/xcelium_19.03/tools/xcelium/files/xmsimrc
xcelium> 
-------------------------------------
Relinquished control to SimVision...
# Restoring simulation environment...
xcelium> input -quiet .reinvoke.sim
xcelium> file delete .reinvoke.sim
xcelium> run
Reading link:  /esat/micas-data/software/Cadence/xcelium_19.03/tools.lnx86/spectre/etc/ahdl/discipline.h
Reading file:  /esat/micas-data/software/Cadence/xcelium_19.03/tools.lnx86/spectre/etc/ahdl/disciplines.vams
Reading link:  /esat/micas-data/software/Cadence/xcelium_19.03/tools.lnx86/spectre/etc/ahdl/constants.h
Reading file:  /esat/micas-data/software/Cadence/xcelium_19.03/tools.lnx86/spectre/etc/ahdl/constants.vams

Warning from spectre during hierarchy flattening.
    WARNING (SFE-30): "./ANALOG_NETWORK.spi" 4: Parameter `post', specified for primitive `options', has been ignored because it is an invalid instance parameter. Specify a valid instance parameter and rerun the simulation. Type `spectre -h options' to get more information on valid instance parameters.

Opening directory xcelium.d/AMSD/ahdlSimDB (775)
Opening directory xcelium.d/AMSD/ahdlSimDB/bsource_33457b.va.bsource_33457b.ahdlcmi/ (775)
Opening directory xcelium.d/AMSD/ahdlSimDB/bsource_33457b.va.bsource_33457b.ahdlcmi/Linux-64/ (775)

Warning from spectre during AHDL read-in.
    WARNING (VACOMP-2409): "Internal (bsource)", line 484: A variable `val_if_0' in compact module `bsource_33457b' has not been assigned a value, and therefore, it has been processed as a hidden state variable. This may slow down the simulation. Assign a value to the variable before using it, or set the 'CDS_AHDL_IGNORE_HIDDEN_STATE' environment variable to YES to process all hidden state variables as non-hidden state variables for all Verilog-A modules. Alternatively, specify the (* ignore_hidden_state="all" *) attribute to process the hidden state variables as non-hidden state variables in the module.

Compiling ahdlcmi module library for bsource_33457b.
Finished compilation in 1.22 s (elapsed) for bsource_33457b.
Installed compiled interface for bsource_33457b.
Opening directory xcelium.d/AMSD/ahdlSimDB (775)
Opening directory xcelium.d/AMSD/ahdlSimDB/bsource_c2f010.va.bsource_c2f010.ahdlcmi/ (775)
Opening directory xcelium.d/AMSD/ahdlSimDB/bsource_c2f010.va.bsource_c2f010.ahdlcmi/Linux-64/ (775)
Compiling ahdlcmi module library for bsource_c2f010.
Finished compilation in 974 ms (elapsed) for bsource_c2f010.
Installed compiled interface for bsource_c2f010.
Opening directory xcelium.d/AMSD/ahdlSimDB (775)
Opening directory xcelium.d/AMSD/ahdlSimDB/bsource_cf8dca.va.bsource_cf8dca.ahdlcmi/ (775)
Opening directory xcelium.d/AMSD/ahdlSimDB/bsource_cf8dca.va.bsource_cf8dca.ahdlcmi/Linux-64/ (775)
Compiling ahdlcmi module library for bsource_cf8dca.
Finished compilation in 972 ms (elapsed) for bsource_cf8dca.
Installed compiled interface for bsource_cf8dca.
Opening directory xcelium.d/AMSD/ahdlSimDB (775)
Opening directory xcelium.d/AMSD/ahdlSimDB/bsource_79758d.va.bsource_79758d.ahdlcmi/ (775)
Opening directory xcelium.d/AMSD/ahdlSimDB/bsource_79758d.va.bsource_79758d.ahdlcmi/Linux-64/ (775)
Compiling ahdlcmi module library for bsource_79758d.
Finished compilation in 1.02 s (elapsed) for bsource_79758d.
Installed compiled interface for bsource_79758d.
Opening directory xcelium.d/AMSD/ahdlSimDB (775)
Opening directory xcelium.d/AMSD/ahdlSimDB/bsource_1477d0.va.bsource_1477d0.ahdlcmi/ (775)
Opening directory xcelium.d/AMSD/ahdlSimDB/bsource_1477d0.va.bsource_1477d0.ahdlcmi/Linux-64/ (775)
Compiling ahdlcmi module library for bsource_1477d0.
Finished compilation in 1.03 s (elapsed) for bsource_1477d0.
Installed compiled interface for bsource_1477d0.
Opening directory xcelium.d/AMSD/ahdlSimDB (775)
Opening directory xcelium.d/AMSD/ahdlSimDB/bsource_757ee0.va.bsource_757ee0.ahdlcmi/ (775)
Opening directory xcelium.d/AMSD/ahdlSimDB/bsource_757ee0.va.bsource_757ee0.ahdlcmi/Linux-64/ (775)
Compiling ahdlcmi module library for bsource_757ee0.
Finished compilation in 1.01 s (elapsed) for bsource_757ee0.
Installed compiled interface for bsource_757ee0.
Opening directory xcelium.d/AMSD/ahdlSimDB (775)
Opening directory xcelium.d/AMSD/ahdlSimDB/bsource_7a0313.va.bsource_7a0313.ahdlcmi/ (775)
Opening directory xcelium.d/AMSD/ahdlSimDB/bsource_7a0313.va.bsource_7a0313.ahdlcmi/Linux-64/ (775)
Compiling ahdlcmi module library for bsource_7a0313.
Finished compilation in 1.01 s (elapsed) for bsource_7a0313.
Installed compiled interface for bsource_7a0313.
Opening directory xcelium.d/AMSD/ahdlSimDB (775)
Opening directory xcelium.d/AMSD/ahdlSimDB/bsource_a478ed.va.bsource_a478ed.ahdlcmi/ (775)
Opening directory xcelium.d/AMSD/ahdlSimDB/bsource_a478ed.va.bsource_a478ed.ahdlcmi/Linux-64/ (775)
Compiling ahdlcmi module library for bsource_a478ed.
Finished compilation in 1.18 s (elapsed) for bsource_a478ed.
Installed compiled interface for bsource_a478ed.
Opening directory xcelium.d/AMSD/ahdlSimDB (775)
Opening directory xcelium.d/AMSD/ahdlSimDB/bsource_b55d8c.va.bsource_b55d8c.ahdlcmi/ (775)
Opening directory xcelium.d/AMSD/ahdlSimDB/bsource_b55d8c.va.bsource_b55d8c.ahdlcmi/Linux-64/ (775)
Compiling ahdlcmi module library for bsource_b55d8c.
Finished compilation in 1.03 s (elapsed) for bsource_b55d8c.
Installed compiled interface for bsource_b55d8c.
Opening directory xcelium.d/AMSD/ahdlSimDB (775)
Opening directory xcelium.d/AMSD/ahdlSimDB/bsource_d8ebd4.va.bsource_d8ebd4.ahdlcmi/ (775)
Opening directory xcelium.d/AMSD/ahdlSimDB/bsource_d8ebd4.va.bsource_d8ebd4.ahdlcmi/Linux-64/ (775)
Compiling ahdlcmi module library for bsource_d8ebd4.
Finished compilation in 1.07 s (elapsed) for bsource_d8ebd4.
Installed compiled interface for bsource_d8ebd4.
Opening directory xcelium.d/AMSD/ahdlSimDB (775)
Opening directory xcelium.d/AMSD/ahdlSimDB/bsource_6af0da.va.bsource_6af0da.ahdlcmi/ (775)
Opening directory xcelium.d/AMSD/ahdlSimDB/bsource_6af0da.va.bsource_6af0da.ahdlcmi/Linux-64/ (775)
Compiling ahdlcmi module library for bsource_6af0da.
Finished compilation in 969 ms (elapsed) for bsource_6af0da.
Installed compiled interface for bsource_6af0da.
Opening directory xcelium.d/AMSD/ahdlSimDB (775)
Opening directory xcelium.d/AMSD/ahdlSimDB/bsource_5e6e7d.va.bsource_5e6e7d.ahdlcmi/ (775)
Opening directory xcelium.d/AMSD/ahdlSimDB/bsource_5e6e7d.va.bsource_5e6e7d.ahdlcmi/Linux-64/ (775)
Compiling ahdlcmi module library for bsource_5e6e7d.
Finished compilation in 1.06 s (elapsed) for bsource_5e6e7d.
Installed compiled interface for bsource_5e6e7d.
Opening directory xcelium.d/AMSD/ahdlSimDB (775)
Opening directory xcelium.d/AMSD/ahdlSimDB/bsource_ddf904.va.bsource_ddf904.ahdlcmi/ (775)
Opening directory xcelium.d/AMSD/ahdlSimDB/bsource_ddf904.va.bsource_ddf904.ahdlcmi/Linux-64/ (775)
Compiling ahdlcmi module library for bsource_ddf904.
Finished compilation in 1.04 s (elapsed) for bsource_ddf904.
Installed compiled interface for bsource_ddf904.
Opening directory xcelium.d/AMSD/ahdlSimDB (775)
Opening directory xcelium.d/AMSD/ahdlSimDB/bsource_95ac49.va.bsource_95ac49.ahdlcmi/ (775)
Opening directory xcelium.d/AMSD/ahdlSimDB/bsource_95ac49.va.bsource_95ac49.ahdlcmi/Linux-64/ (775)
Compiling ahdlcmi module library for bsource_95ac49.
Finished compilation in 1.07 s (elapsed) for bsource_95ac49.
Installed compiled interface for bsource_95ac49.
Opening directory xcelium.d/AMSD/ahdlSimDB (775)
Opening directory xcelium.d/AMSD/ahdlSimDB/bsource_aafb85.va.bsource_aafb85.ahdlcmi/ (775)
Opening directory xcelium.d/AMSD/ahdlSimDB/bsource_aafb85.va.bsource_aafb85.ahdlcmi/Linux-64/ (775)
Compiling ahdlcmi module library for bsource_aafb85.
Finished compilation in 1.05 s (elapsed) for bsource_aafb85.
Installed compiled interface for bsource_aafb85.
Opening directory xcelium.d/AMSD/ahdlSimDB (775)
Opening directory xcelium.d/AMSD/ahdlSimDB/bsource_58d47b.va.bsource_58d47b.ahdlcmi/ (775)
Opening directory xcelium.d/AMSD/ahdlSimDB/bsource_58d47b.va.bsource_58d47b.ahdlcmi/Linux-64/ (775)
Compiling ahdlcmi module library for bsource_58d47b.
Finished compilation in 1.04 s (elapsed) for bsource_58d47b.
Installed compiled interface for bsource_58d47b.
Opening directory xcelium.d/AMSD/ahdlSimDB (775)
Opening directory xcelium.d/AMSD/ahdlSimDB/bsource_37ac07.va.bsource_37ac07.ahdlcmi/ (775)
Opening directory xcelium.d/AMSD/ahdlSimDB/bsource_37ac07.va.bsource_37ac07.ahdlcmi/Linux-64/ (775)
Compiling ahdlcmi module library for bsource_37ac07.
Finished compilation in 1.06 s (elapsed) for bsource_37ac07.
Installed compiled interface for bsource_37ac07.
Opening directory xcelium.d/AMSD/ahdlSimDB (775)
Opening directory xcelium.d/AMSD/ahdlSimDB/bsource_54bf5d.va.bsource_54bf5d.ahdlcmi/ (775)
Opening directory xcelium.d/AMSD/ahdlSimDB/bsource_54bf5d.va.bsource_54bf5d.ahdlcmi/Linux-64/ (775)
Compiling ahdlcmi module library for bsource_54bf5d.
Finished compilation in 1.02 s (elapsed) for bsource_54bf5d.
Installed compiled interface for bsource_54bf5d.
Opening directory xcelium.d/AMSD/ahdlSimDB (775)
Opening directory xcelium.d/AMSD/ahdlSimDB/bsource_2ad175.va.bsource_2ad175.ahdlcmi/ (775)
Opening directory xcelium.d/AMSD/ahdlSimDB/bsource_2ad175.va.bsource_2ad175.ahdlcmi/Linux-64/ (775)
Compiling ahdlcmi module library for bsource_2ad175.
Finished compilation in 1.06 s (elapsed) for bsource_2ad175.
Installed compiled interface for bsource_2ad175.
Opening directory xcelium.d/AMSD/ahdlSimDB (775)
Opening directory xcelium.d/AMSD/ahdlSimDB/bsource_307fb9.va.bsource_307fb9.ahdlcmi/ (775)
Opening directory xcelium.d/AMSD/ahdlSimDB/bsource_307fb9.va.bsource_307fb9.ahdlcmi/Linux-64/ (775)
Compiling ahdlcmi module library for bsource_307fb9.
Finished compilation in 1.06 s (elapsed) for bsource_307fb9.
Installed compiled interface for bsource_307fb9.
Opening directory xcelium.d/AMSD/ahdlSimDB (775)
Opening directory xcelium.d/AMSD/ahdlSimDB/bsource_a958ed.va.bsource_a958ed.ahdlcmi/ (775)
Opening directory xcelium.d/AMSD/ahdlSimDB/bsource_a958ed.va.bsource_a958ed.ahdlcmi/Linux-64/ (775)
Compiling ahdlcmi module library for bsource_a958ed.
Finished compilation in 1.05 s (elapsed) for bsource_a958ed.
Installed compiled interface for bsource_a958ed.
Opening directory xcelium.d/AMSD/ahdlSimDB (775)
Opening directory xcelium.d/AMSD/ahdlSimDB/bsource_356da1.va.bsource_356da1.ahdlcmi/ (775)
Opening directory xcelium.d/AMSD/ahdlSimDB/bsource_356da1.va.bsource_356da1.ahdlcmi/Linux-64/ (775)
Compiling ahdlcmi module library for bsource_356da1.
Finished compilation in 1.04 s (elapsed) for bsource_356da1.
Installed compiled interface for bsource_356da1.
Opening directory xcelium.d/AMSD/ahdlSimDB (775)
Opening directory xcelium.d/AMSD/ahdlSimDB/bsource_27a05f.va.bsource_27a05f.ahdlcmi/ (775)
Opening directory xcelium.d/AMSD/ahdlSimDB/bsource_27a05f.va.bsource_27a05f.ahdlcmi/Linux-64/ (775)
Compiling ahdlcmi module library for bsource_27a05f.
Finished compilation in 1.01 s (elapsed) for bsource_27a05f.
Installed compiled interface for bsource_27a05f.
Opening directory xcelium.d/AMSD/ahdlSimDB (775)
Opening directory xcelium.d/AMSD/ahdlSimDB/bsource_731a5a.va.bsource_731a5a.ahdlcmi/ (775)
Opening directory xcelium.d/AMSD/ahdlSimDB/bsource_731a5a.va.bsource_731a5a.ahdlcmi/Linux-64/ (775)
Compiling ahdlcmi module library for bsource_731a5a.
Finished compilation in 1.04 s (elapsed) for bsource_731a5a.
Installed compiled interface for bsource_731a5a.
Opening directory xcelium.d/AMSD/ahdlSimDB (775)
Opening directory xcelium.d/AMSD/ahdlSimDB/bsource_b315ff.va.bsource_b315ff.ahdlcmi/ (775)
Opening directory xcelium.d/AMSD/ahdlSimDB/bsource_b315ff.va.bsource_b315ff.ahdlcmi/Linux-64/ (775)
Compiling ahdlcmi module library for bsource_b315ff.
Finished compilation in 1.02 s (elapsed) for bsource_b315ff.
Installed compiled interface for bsource_b315ff.
Opening directory xcelium.d/AMSD/ahdlSimDB (775)
Opening directory xcelium.d/AMSD/ahdlSimDB/bsource_985c35.va.bsource_985c35.ahdlcmi/ (775)
Opening directory xcelium.d/AMSD/ahdlSimDB/bsource_985c35.va.bsource_985c35.ahdlcmi/Linux-64/ (775)
Compiling ahdlcmi module library for bsource_985c35.
Finished compilation in 1.15 s (elapsed) for bsource_985c35.
Installed compiled interface for bsource_985c35.
Opening directory xcelium.d/AMSD/ahdlSimDB (775)
Opening directory xcelium.d/AMSD/ahdlSimDB/bsource_44accd.va.bsource_44accd.ahdlcmi/ (775)
Opening directory xcelium.d/AMSD/ahdlSimDB/bsource_44accd.va.bsource_44accd.ahdlcmi/Linux-64/ (775)
Compiling ahdlcmi module library for bsource_44accd.
Finished compilation in 1.06 s (elapsed) for bsource_44accd.
Installed compiled interface for bsource_44accd.
Opening directory xcelium.d/AMSD/ahdlSimDB (775)
Opening directory xcelium.d/AMSD/ahdlSimDB/bsource_7c0768.va.bsource_7c0768.ahdlcmi/ (775)
Opening directory xcelium.d/AMSD/ahdlSimDB/bsource_7c0768.va.bsource_7c0768.ahdlcmi/Linux-64/ (775)
Compiling ahdlcmi module library for bsource_7c0768.
Finished compilation in 1.08 s (elapsed) for bsource_7c0768.
Installed compiled interface for bsource_7c0768.
Opening directory xcelium.d/AMSD/ahdlSimDB (775)
Opening directory xcelium.d/AMSD/ahdlSimDB/bsource_ac7ca3.va.bsource_ac7ca3.ahdlcmi/ (775)
Opening directory xcelium.d/AMSD/ahdlSimDB/bsource_ac7ca3.va.bsource_ac7ca3.ahdlcmi/Linux-64/ (775)
Compiling ahdlcmi module library for bsource_ac7ca3.
Finished compilation in 1.06 s (elapsed) for bsource_ac7ca3.
Installed compiled interface for bsource_ac7ca3.
Opening directory xcelium.d/AMSD/ahdlSimDB (775)
Opening directory xcelium.d/AMSD/ahdlSimDB/bsource_fbd78a.va.bsource_fbd78a.ahdlcmi/ (775)
Opening directory xcelium.d/AMSD/ahdlSimDB/bsource_fbd78a.va.bsource_fbd78a.ahdlcmi/Linux-64/ (775)
Compiling ahdlcmi module library for bsource_fbd78a.
Finished compilation in 1.06 s (elapsed) for bsource_fbd78a.
Installed compiled interface for bsource_fbd78a.
Opening directory xcelium.d/AMSD/ahdlSimDB (775)
Opening directory xcelium.d/AMSD/ahdlSimDB/bsource_6aeee2.va.bsource_6aeee2.ahdlcmi/ (775)
Opening directory xcelium.d/AMSD/ahdlSimDB/bsource_6aeee2.va.bsource_6aeee2.ahdlcmi/Linux-64/ (775)
Compiling ahdlcmi module library for bsource_6aeee2.
Finished compilation in 1.04 s (elapsed) for bsource_6aeee2.
Installed compiled interface for bsource_6aeee2.
Opening directory xcelium.d/AMSD/ahdlSimDB (775)
Opening directory xcelium.d/AMSD/ahdlSimDB/bsource_6ec396.va.bsource_6ec396.ahdlcmi/ (775)
Opening directory xcelium.d/AMSD/ahdlSimDB/bsource_6ec396.va.bsource_6ec396.ahdlcmi/Linux-64/ (775)
Compiling ahdlcmi module library for bsource_6ec396.
Finished compilation in 1 s (elapsed) for bsource_6ec396.
Installed compiled interface for bsource_6ec396.
Opening directory xcelium.d/AMSD/ahdlSimDB (775)
Opening directory xcelium.d/AMSD/ahdlSimDB/bsource_dadeae.va.bsource_dadeae.ahdlcmi/ (775)
Opening directory xcelium.d/AMSD/ahdlSimDB/bsource_dadeae.va.bsource_dadeae.ahdlcmi/Linux-64/ (775)
Compiling ahdlcmi module library for bsource_dadeae.
Finished compilation in 1.05 s (elapsed) for bsource_dadeae.
Installed compiled interface for bsource_dadeae.
Opening directory xcelium.d/AMSD/ahdlSimDB (775)
Opening directory xcelium.d/AMSD/ahdlSimDB/bsource_877579.va.bsource_877579.ahdlcmi/ (775)
Opening directory xcelium.d/AMSD/ahdlSimDB/bsource_877579.va.bsource_877579.ahdlcmi/Linux-64/ (775)
Compiling ahdlcmi module library for bsource_877579.
Finished compilation in 1.02 s (elapsed) for bsource_877579.
Installed compiled interface for bsource_877579.
Opening directory xcelium.d/AMSD/ahdlSimDB (775)
Opening directory xcelium.d/AMSD/ahdlSimDB/bsource_5391c0.va.bsource_5391c0.ahdlcmi/ (775)
Opening directory xcelium.d/AMSD/ahdlSimDB/bsource_5391c0.va.bsource_5391c0.ahdlcmi/Linux-64/ (775)
Compiling ahdlcmi module library for bsource_5391c0.
Finished compilation in 1.04 s (elapsed) for bsource_5391c0.
Installed compiled interface for bsource_5391c0.
Opening directory xcelium.d/AMSD/ahdlSimDB (775)
Opening directory xcelium.d/AMSD/ahdlSimDB/bsource_5bffa1.va.bsource_5bffa1.ahdlcmi/ (775)
Opening directory xcelium.d/AMSD/ahdlSimDB/bsource_5bffa1.va.bsource_5bffa1.ahdlcmi/Linux-64/ (775)
Compiling ahdlcmi module library for bsource_5bffa1.
Finished compilation in 1.06 s (elapsed) for bsource_5bffa1.
Installed compiled interface for bsource_5bffa1.
Opening directory xcelium.d/AMSD/ahdlSimDB (775)
Opening directory xcelium.d/AMSD/ahdlSimDB/bsource_00cd71.va.bsource_00cd71.ahdlcmi/ (775)
Opening directory xcelium.d/AMSD/ahdlSimDB/bsource_00cd71.va.bsource_00cd71.ahdlcmi/Linux-64/ (775)
Compiling ahdlcmi module library for bsource_00cd71.
Finished compilation in 1.02 s (elapsed) for bsource_00cd71.
Installed compiled interface for bsource_00cd71.
Opening directory xcelium.d/AMSD/ahdlSimDB (775)
Opening directory xcelium.d/AMSD/ahdlSimDB/bsource_a2d8a6.va.bsource_a2d8a6.ahdlcmi/ (775)
Opening directory xcelium.d/AMSD/ahdlSimDB/bsource_a2d8a6.va.bsource_a2d8a6.ahdlcmi/Linux-64/ (775)
Compiling ahdlcmi module library for bsource_a2d8a6.
Finished compilation in 1.05 s (elapsed) for bsource_a2d8a6.
Installed compiled interface for bsource_a2d8a6.
Opening directory xcelium.d/AMSD/ahdlSimDB (775)
Opening directory xcelium.d/AMSD/ahdlSimDB/bsource_9a1026.va.bsource_9a1026.ahdlcmi/ (775)
Opening directory xcelium.d/AMSD/ahdlSimDB/bsource_9a1026.va.bsource_9a1026.ahdlcmi/Linux-64/ (775)
Compiling ahdlcmi module library for bsource_9a1026.
Finished compilation in 1.03 s (elapsed) for bsource_9a1026.
Installed compiled interface for bsource_9a1026.
Opening directory xcelium.d/AMSD/ahdlSimDB (775)
Opening directory xcelium.d/AMSD/ahdlSimDB/bsource_42c163.va.bsource_42c163.ahdlcmi/ (775)
Opening directory xcelium.d/AMSD/ahdlSimDB/bsource_42c163.va.bsource_42c163.ahdlcmi/Linux-64/ (775)
Compiling ahdlcmi module library for bsource_42c163.
Finished compilation in 1.07 s (elapsed) for bsource_42c163.
Installed compiled interface for bsource_42c163.
Opening directory xcelium.d/AMSD/ahdlSimDB (775)
Opening directory xcelium.d/AMSD/ahdlSimDB/bsource_8c3711.va.bsource_8c3711.ahdlcmi/ (775)
Opening directory xcelium.d/AMSD/ahdlSimDB/bsource_8c3711.va.bsource_8c3711.ahdlcmi/Linux-64/ (775)
Compiling ahdlcmi module library for bsource_8c3711.
Finished compilation in 1.07 s (elapsed) for bsource_8c3711.
Installed compiled interface for bsource_8c3711.
Opening directory xcelium.d/AMSD/ahdlSimDB (775)
Opening directory xcelium.d/AMSD/ahdlSimDB/bsource_dc79d2.va.bsource_dc79d2.ahdlcmi/ (775)
Opening directory xcelium.d/AMSD/ahdlSimDB/bsource_dc79d2.va.bsource_dc79d2.ahdlcmi/Linux-64/ (775)
Compiling ahdlcmi module library for bsource_dc79d2.
Finished compilation in 1.06 s (elapsed) for bsource_dc79d2.
Installed compiled interface for bsource_dc79d2.
Opening directory xcelium.d/AMSD/ahdlSimDB (775)
Opening directory xcelium.d/AMSD/ahdlSimDB/bsource_316cf3.va.bsource_316cf3.ahdlcmi/ (775)
Opening directory xcelium.d/AMSD/ahdlSimDB/bsource_316cf3.va.bsource_316cf3.ahdlcmi/Linux-64/ (775)
Compiling ahdlcmi module library for bsource_316cf3.
Finished compilation in 1.05 s (elapsed) for bsource_316cf3.
Installed compiled interface for bsource_316cf3.
Opening directory xcelium.d/AMSD/ahdlSimDB (775)
Opening directory xcelium.d/AMSD/ahdlSimDB/bsource_53e90d.va.bsource_53e90d.ahdlcmi/ (775)
Opening directory xcelium.d/AMSD/ahdlSimDB/bsource_53e90d.va.bsource_53e90d.ahdlcmi/Linux-64/ (775)
Compiling ahdlcmi module library for bsource_53e90d.
Finished compilation in 1.05 s (elapsed) for bsource_53e90d.
Installed compiled interface for bsource_53e90d.
Opening directory xcelium.d/AMSD/ahdlSimDB (775)
Opening directory xcelium.d/AMSD/ahdlSimDB/bsource_5b47f0.va.bsource_5b47f0.ahdlcmi/ (775)
Opening directory xcelium.d/AMSD/ahdlSimDB/bsource_5b47f0.va.bsource_5b47f0.ahdlcmi/Linux-64/ (775)
Compiling ahdlcmi module library for bsource_5b47f0.
Finished compilation in 1.13 s (elapsed) for bsource_5b47f0.
Installed compiled interface for bsource_5b47f0.
Opening directory xcelium.d/AMSD/ahdlSimDB (775)
Opening directory xcelium.d/AMSD/ahdlSimDB/bsource_e44b9a.va.bsource_e44b9a.ahdlcmi/ (775)
Opening directory xcelium.d/AMSD/ahdlSimDB/bsource_e44b9a.va.bsource_e44b9a.ahdlcmi/Linux-64/ (775)
Compiling ahdlcmi module library for bsource_e44b9a.
Finished compilation in 998 ms (elapsed) for bsource_e44b9a.
Installed compiled interface for bsource_e44b9a.
Opening directory xcelium.d/AMSD/ahdlSimDB (775)
Opening directory xcelium.d/AMSD/ahdlSimDB/bsource_171e0e.va.bsource_171e0e.ahdlcmi/ (775)
Opening directory xcelium.d/AMSD/ahdlSimDB/bsource_171e0e.va.bsource_171e0e.ahdlcmi/Linux-64/ (775)
Compiling ahdlcmi module library for bsource_171e0e.
Finished compilation in 1.03 s (elapsed) for bsource_171e0e.
Installed compiled interface for bsource_171e0e.
Opening directory xcelium.d/AMSD/ahdlSimDB (775)
Opening directory xcelium.d/AMSD/ahdlSimDB/bsource_795088.va.bsource_795088.ahdlcmi/ (775)
Opening directory xcelium.d/AMSD/ahdlSimDB/bsource_795088.va.bsource_795088.ahdlcmi/Linux-64/ (775)

Warning from spectre during AHDL read-in.
    WARNING (VACOMP-2409): "Internal (bsource)", line 483: A variable `val_if_0' in compact module `bsource_795088' has not been assigned a value, and therefore, it has been processed as a hidden state variable. This may slow down the simulation. Assign a value to the variable before using it, or set the 'CDS_AHDL_IGNORE_HIDDEN_STATE' environment variable to YES to process all hidden state variables as non-hidden state variables for all Verilog-A modules. Alternatively, specify the (* ignore_hidden_state="all" *) attribute to process the hidden state variables as non-hidden state variables in the module.

Compiling ahdlcmi module library for bsource_795088.
Finished compilation in 1.06 s (elapsed) for bsource_795088.
Installed compiled interface for bsource_795088.
Opening directory xcelium.d/AMSD/ahdlSimDB (775)
Opening directory xcelium.d/AMSD/ahdlSimDB/bsource_44c6fc.va.bsource_44c6fc.ahdlcmi/ (775)
Opening directory xcelium.d/AMSD/ahdlSimDB/bsource_44c6fc.va.bsource_44c6fc.ahdlcmi/Linux-64/ (775)

Warning from spectre during AHDL read-in.
    WARNING (VACOMP-2409): "Internal (bsource)", line 483: A variable `val_if_0' in compact module `bsource_44c6fc' has not been assigned a value, and therefore, it has been processed as a hidden state variable. This may slow down the simulation. Assign a value to the variable before using it, or set the 'CDS_AHDL_IGNORE_HIDDEN_STATE' environment variable to YES to process all hidden state variables as non-hidden state variables for all Verilog-A modules. Alternatively, specify the (* ignore_hidden_state="all" *) attribute to process the hidden state variables as non-hidden state variables in the module.

Compiling ahdlcmi module library for bsource_44c6fc.
Finished compilation in 1.09 s (elapsed) for bsource_44c6fc.
Installed compiled interface for bsource_44c6fc.
Opening directory xcelium.d/AMSD/ahdlSimDB (775)
Opening directory xcelium.d/AMSD/ahdlSimDB/bsource_c228a7.va.bsource_c228a7.ahdlcmi/ (775)
Opening directory xcelium.d/AMSD/ahdlSimDB/bsource_c228a7.va.bsource_c228a7.ahdlcmi/Linux-64/ (775)
Compiling ahdlcmi module library for bsource_c228a7.
Finished compilation in 1.04 s (elapsed) for bsource_c228a7.
Installed compiled interface for bsource_c228a7.
Opening directory xcelium.d/AMSD/ahdlSimDB (775)
Opening directory xcelium.d/AMSD/ahdlSimDB/bsource_ac1afe.va.bsource_ac1afe.ahdlcmi/ (775)
Opening directory xcelium.d/AMSD/ahdlSimDB/bsource_ac1afe.va.bsource_ac1afe.ahdlcmi/Linux-64/ (775)

Warning from spectre during AHDL read-in.
    WARNING (VACOMP-2409): "Internal (bsource)", line 483: A variable `val_if_0' in compact module `bsource_ac1afe' has not been assigned a value, and therefore, it has been processed as a hidden state variable. This may slow down the simulation. Assign a value to the variable before using it, or set the 'CDS_AHDL_IGNORE_HIDDEN_STATE' environment variable to YES to process all hidden state variables as non-hidden state variables for all Verilog-A modules. Alternatively, specify the (* ignore_hidden_state="all" *) attribute to process the hidden state variables as non-hidden state variables in the module.
    WARNING (VACOMP-2409): "Internal (bsource)", line 484: A variable `val_if_1' in compact module `bsource_ac1afe' has not been assigned a value, and therefore, it has been processed as a hidden state variable. This may slow down the simulation. Assign a value to the variable before using it, or set the 'CDS_AHDL_IGNORE_HIDDEN_STATE' environment variable to YES to process all hidden state variables as non-hidden state variables for all Verilog-A modules. Alternatively, specify the (* ignore_hidden_state="all" *) attribute to process the hidden state variables as non-hidden state variables in the module.
        Further occurrences of this warning will be suppressed.

Compiling ahdlcmi module library for bsource_ac1afe.
Finished compilation in 1.11 s (elapsed) for bsource_ac1afe.
Installed compiled interface for bsource_ac1afe.
Opening directory xcelium.d/AMSD/ahdlSimDB (775)
Opening directory xcelium.d/AMSD/ahdlSimDB/bsource_19a18d.va.bsource_19a18d.ahdlcmi/ (775)
Opening directory xcelium.d/AMSD/ahdlSimDB/bsource_19a18d.va.bsource_19a18d.ahdlcmi/Linux-64/ (775)
Compiling ahdlcmi module library for bsource_19a18d.
Finished compilation in 1.08 s (elapsed) for bsource_19a18d.
Installed compiled interface for bsource_19a18d.
Opening directory xcelium.d/AMSD/ahdlSimDB (775)
Opening directory xcelium.d/AMSD/ahdlSimDB/bsource_ea5b02.va.bsource_ea5b02.ahdlcmi/ (775)
Opening directory xcelium.d/AMSD/ahdlSimDB/bsource_ea5b02.va.bsource_ea5b02.ahdlcmi/Linux-64/ (775)
Compiling ahdlcmi module library for bsource_ea5b02.
Finished compilation in 1.09 s (elapsed) for bsource_ea5b02.
Installed compiled interface for bsource_ea5b02.
Opening directory xcelium.d/AMSD/ahdlSimDB (775)
Opening directory xcelium.d/AMSD/ahdlSimDB/bsource_24ef31.va.bsource_24ef31.ahdlcmi/ (775)
Opening directory xcelium.d/AMSD/ahdlSimDB/bsource_24ef31.va.bsource_24ef31.ahdlcmi/Linux-64/ (775)
Compiling ahdlcmi module library for bsource_24ef31.
Finished compilation in 1.06 s (elapsed) for bsource_24ef31.
Installed compiled interface for bsource_24ef31.
Opening directory xcelium.d/AMSD/ahdlSimDB (775)
Opening directory xcelium.d/AMSD/ahdlSimDB/bsource_fd601a.va.bsource_fd601a.ahdlcmi/ (775)
Opening directory xcelium.d/AMSD/ahdlSimDB/bsource_fd601a.va.bsource_fd601a.ahdlcmi/Linux-64/ (775)
Compiling ahdlcmi module library for bsource_fd601a.
Finished compilation in 1.07 s (elapsed) for bsource_fd601a.
Installed compiled interface for bsource_fd601a.
Opening directory xcelium.d/AMSD/ahdlSimDB (775)
Opening directory xcelium.d/AMSD/ahdlSimDB/bsource_412c9a.va.bsource_412c9a.ahdlcmi/ (775)
Opening directory xcelium.d/AMSD/ahdlSimDB/bsource_412c9a.va.bsource_412c9a.ahdlcmi/Linux-64/ (775)
Compiling ahdlcmi module library for bsource_412c9a.
Finished compilation in 1.09 s (elapsed) for bsource_412c9a.
Installed compiled interface for bsource_412c9a.
Opening directory xcelium.d/AMSD/ahdlSimDB (775)
Opening directory xcelium.d/AMSD/ahdlSimDB/bsource_de7abb.va.bsource_de7abb.ahdlcmi/ (775)
Opening directory xcelium.d/AMSD/ahdlSimDB/bsource_de7abb.va.bsource_de7abb.ahdlcmi/Linux-64/ (775)
Compiling ahdlcmi module library for bsource_de7abb.
Finished compilation in 1.13 s (elapsed) for bsource_de7abb.
Installed compiled interface for bsource_de7abb.
Opening directory xcelium.d/AMSD/ahdlSimDB (775)
Opening directory xcelium.d/AMSD/ahdlSimDB/bsource_5a0527.va.bsource_5a0527.ahdlcmi/ (775)
Opening directory xcelium.d/AMSD/ahdlSimDB/bsource_5a0527.va.bsource_5a0527.ahdlcmi/Linux-64/ (775)
Compiling ahdlcmi module library for bsource_5a0527.
Finished compilation in 1.07 s (elapsed) for bsource_5a0527.
Installed compiled interface for bsource_5a0527.
Opening directory xcelium.d/AMSD/ahdlSimDB (775)
Opening directory xcelium.d/AMSD/ahdlSimDB/bsource_a92d86.va.bsource_a92d86.ahdlcmi/ (775)
Opening directory xcelium.d/AMSD/ahdlSimDB/bsource_a92d86.va.bsource_a92d86.ahdlcmi/Linux-64/ (775)
Compiling ahdlcmi module library for bsource_a92d86.
Finished compilation in 1.17 s (elapsed) for bsource_a92d86.
Installed compiled interface for bsource_a92d86.
Opening directory xcelium.d/AMSD/ahdlSimDB (775)
Opening directory xcelium.d/AMSD/ahdlSimDB/bsource_361a03.va.bsource_361a03.ahdlcmi/ (775)
Opening directory xcelium.d/AMSD/ahdlSimDB/bsource_361a03.va.bsource_361a03.ahdlcmi/Linux-64/ (775)
Compiling ahdlcmi module library for bsource_361a03.
Finished compilation in 1.05 s (elapsed) for bsource_361a03.
Installed compiled interface for bsource_361a03.
Opening directory xcelium.d/AMSD/ahdlSimDB (775)
Opening directory xcelium.d/AMSD/ahdlSimDB/bsource_8992bd.va.bsource_8992bd.ahdlcmi/ (775)
Opening directory xcelium.d/AMSD/ahdlSimDB/bsource_8992bd.va.bsource_8992bd.ahdlcmi/Linux-64/ (775)
Compiling ahdlcmi module library for bsource_8992bd.
Finished compilation in 1.1 s (elapsed) for bsource_8992bd.
Installed compiled interface for bsource_8992bd.
Opening directory xcelium.d/AMSD/ahdlSimDB (775)
Opening directory xcelium.d/AMSD/ahdlSimDB/bsource_8ad395.va.bsource_8ad395.ahdlcmi/ (775)
Opening directory xcelium.d/AMSD/ahdlSimDB/bsource_8ad395.va.bsource_8ad395.ahdlcmi/Linux-64/ (775)
Compiling ahdlcmi module library for bsource_8ad395.
Finished compilation in 1.1 s (elapsed) for bsource_8ad395.
Installed compiled interface for bsource_8ad395.

Warning from spectre during hierarchy flattening.
    WARNING (SFE-3012): The shorted instance toplevel.analog_network_inst.XX6.XU1.RNC_7 is removed.
    WARNING (SFE-3012): The shorted instance toplevel.analog_network_inst.XX6.XU1.RNC_8 is removed.
    WARNING (SFE-3012): The shorted instance toplevel.analog_network_inst.XX6.XU1.RGND_1 is removed.
    WARNING (SFE-3012): The shorted instance toplevel.analog_network_inst.XX6.XU1.RGND_2 is removed.
    WARNING (SFE-3012): The shorted instance toplevel.analog_network_inst.XX9.XU1.RNC_8 is removed.
        Further occurrences of this warning will be suppressed.
    WARNING (SFE-3013): The dangling instance toplevel.analog_network_inst.XX5.R2 is removed.
    WARNING (SFE-3013): The dangling instance toplevel.analog_network_inst.XX4.R3 is removed.
    WARNING (SFE-3013): The dangling instance toplevel.analog_network_inst.XX4.R4 is removed.
    WARNING (SFE-3016): The floating node __cds_internal_stub_node__ is removed.
    WARNING (SFE-3015): The dangling node toplevel.analog_network_inst.Vadc is removed.
    WARNING (SFE-3015): The dangling node toplevel.analog_network_inst.Iadc is removed.
    WARNING (SFE-3015): The dangling node toplevel.analog_network_inst.XX4.N003 is removed.

Time for Elaboration: CPU = 1.51562 s, elapsed = 73.1074 s (1m  13.1s).
Time accumulated: CPU = 2.01734 s, elapsed = 73.9443 s (1m  13.9s).
Peak resident memory used = 129 Mbytes.

Starting APS DC ...


Warning from spectre in `full_bridge_rect':`toplevel.analog_network_inst.XX1', in `worklib__ANALOG_NETWORK__spice_skeleton__0x10000001':`toplevel.analog_network_inst', in `worklib__toplevel__v':`toplevel', during hierarchy flattening.
    WARNING (CMI-2316): toplevel.analog_network_inst.XX1.D1: Parasitic resistor `rs' has been deleted because its value of 2.06 mOhm ( R / (Area * MFactor) ) was smaller than `minr'.
    WARNING (CMI-2316): toplevel.analog_network_inst.XX1.D2: Parasitic resistor `rs' has been deleted because its value of 2.06 mOhm ( R / (Area * MFactor) ) was smaller than `minr'.
    WARNING (CMI-2316): toplevel.analog_network_inst.XX1.D3: Parasitic resistor `rs' has been deleted because its value of 2.06 mOhm ( R / (Area * MFactor) ) was smaller than `minr'.
    WARNING (CMI-2316): toplevel.analog_network_inst.XX1.D4: Parasitic resistor `rs' has been deleted because its value of 2.06 mOhm ( R / (Area * MFactor) ) was smaller than `minr'.
Notice from spectre in `irfs_sl7440pbf':`toplevel.analog_network_inst.XX2.XU2', in `h_bridge':`toplevel.analog_network_inst.XX2', in `worklib__ANALOG_NETWORK__spice_skeleton__0x10000001':`toplevel.analog_network_inst', in `worklib__toplevel__v':`toplevel', during hierarchy flattening.
    toplevel.analog_network_inst.XX2.XU2.MM: The saturation channel conductance is zero in the model.  This could result in enormous gain and cause convergence or overflow problems.  Check the value of lambda or kappa.
Warning from spectre in `irfs_sl7440pbf':`toplevel.analog_network_inst.XX2.XU2', in `h_bridge':`toplevel.analog_network_inst.XX2', in `worklib__ANALOG_NETWORK__spice_skeleton__0x10000001':`toplevel.analog_network_inst', in `worklib__toplevel__v':`toplevel', during hierarchy flattening.
    WARNING (CMI-2316): toplevel.analog_network_inst.XX2.XU2.D1: Parasitic resistor `rs' has been deleted because its value of 1.43764 mOhm ( R / (Area * MFactor) ) was smaller than `minr'.
        Further occurrences of this warning will be suppressed.
Warning from spectre in `h_bridge':`toplevel.analog_network_inst.XX2', in `worklib__ANALOG_NETWORK__spice_skeleton__0x10000001':`toplevel.analog_network_inst', in `worklib__toplevel__v':`toplevel', during hierarchy flattening.
    WARNING (CMI-2362): toplevel.analog_network_inst.XX2.DI_BAV5004LP: The value of `vj(pb)' at T = 27 C is 55e-03 V, which is too small. Clamped to 100e-03 V.
    WARNING (CMI-2362): toplevel.analog_network_inst.XX2.DI_BAV5004LP: The value of `vj(pb)' at T = 27 C is 55e-03 V, which is too small. Clamped to 100e-03 V.
Notice from spectre in `OPA2344':`toplevel.analog_network_inst.XU3', in `worklib__ANALOG_NETWORK__spice_skeleton__0x10000001':`toplevel.analog_network_inst', in `worklib__toplevel__v':`toplevel', during hierarchy flattening.
    toplevel.analog_network_inst.XU3.NOUT: `cgso' is not specified.  0.1um * Cox is used.
    toplevel.analog_network_inst.XU3.NOUT: `cgdo' is not specified.  0.1um * Cox is used.
    toplevel.analog_network_inst.XU3.POUT: `cgso' is not specified.  0.1um * Cox is used.
    toplevel.analog_network_inst.XU3.POUT: `cgdo' is not specified.  0.1um * Cox is used.
    toplevel.analog_network_inst.XU3.PIN: The saturation channel conductance is zero in the model.  This could result in enormous gain and cause convergence or overflow problems.  Check the value of lambda or kappa.
    toplevel.analog_network_inst.XU3.PIN: `cgso' is not specified.  0.1um * Cox is used.
        Further occurrences of this notice will be suppressed.
    toplevel.analog_network_inst.XU3.PIN: The saturation channel conductance is zero in the model.  This could result in enormous gain and cause convergence or overflow problems.  Check the value of lambda or kappa.
    toplevel.analog_network_inst.XU3.NIN: The saturation channel conductance is zero in the model.  This could result in enormous gain and cause convergence or overflow problems.  Check the value of lambda or kappa.
    toplevel.analog_network_inst.XU3.NIN: The saturation channel conductance is zero in the model.  This could result in enormous gain and cause convergence or overflow problems.  Check the value of lambda or kappa.
        Further occurrences of this notice will be suppressed.
Error found by spectre in `ZOUT_INA180A1':`toplevel.analog_network_inst.XX5.XU1.X_U101', in `INA180A1':`toplevel.analog_network_inst.XX5.XU1', in `dc_current':`toplevel.analog_network_inst.XX5', in `worklib__ANALOG_NETWORK__spice_skeleton__0x10000001':`toplevel.analog_network_inst', in `worklib__toplevel__v':`toplevel', during hierarchy flattening.
    ERROR (CMI-2342): toplevel.analog_network_inst.XX5.XU1.X_U101.R_NOISELESS: `trise' is too negative, making the model temperature less than 0 K.
    ERROR (CMI-2342): toplevel.analog_network_inst.XX5.XU1.X_U101.R_NOISELESS: `trise' is too negative, making the model temperature less than 0 K.
    ERROR (CMI-2342): toplevel.analog_network_inst.XX5.XU1.X_U101.R_NOISELESS: `trise' is too negative, making the model temperature less than 0 K.
    ERROR (CMI-2342): toplevel.analog_network_inst.XX5.XU1.X_U101.R_NOISELESS: `trise' is too negative, making the model temperature less than 0 K.
    ERROR (CMI-2342): toplevel.analog_network_inst.XX5.XU1.X_U101.R_NOISELESS: `trise' is too negative, making the model temperature less than 0 K.
    ERROR (CMI-2342): toplevel.analog_network_inst.XX5.XU1.X_U101.R_NOISELESS: `trise' is too negative, making the model temperature less than 0 K.
    ERROR (CMI-2342): toplevel.analog_network_inst.XX5.XU1.X_U101.R_NOISELESS: `trise' is too negative, making the model temperature less than 0 K.
    ERROR (CMI-2342): toplevel.analog_network_inst.XX5.XU1.X_U101.R_NOISELESS: `trise' is too negative, making the model temperature less than 0 K.
    ERROR (CMI-2342): toplevel.analog_network_inst.XX5.XU1.X_U101.R_NOISELESS: `trise' is too negative, making the model temperature less than 0 K.
    ERROR (CMI-2342): toplevel.analog_network_inst.XX5.XU1.X_U101.R_NOISELESS: `trise' is too negative, making the model temperature less than 0 K.
    ERROR (CMI-2342): toplevel.analog_network_inst.XX5.XU1.X_U101.R_NOISELESS: `trise' is too negative, making the model temperature less than 0 K.
    ERROR (CMI-2342): toplevel.analog_network_inst.XX5.XU1.X_U101.R_NOISELESS: `trise' is too negative, making the model temperature less than 0 K.
    ERROR (CMI-2342): toplevel.analog_network_inst.XX5.XU1.X_U101.R_NOISELESS: `trise' is too negative, making the model temperature less than 0 K.
    ERROR (CMI-2342): toplevel.analog_network_inst.XX5.XU1.X_U101.R_NOISELESS: `trise' is too negative, making the model temperature less than 0 K.
    ERROR (CMI-2342): toplevel.analog_network_inst.XX5.XU1.X_U101.R_NOISELESS: `trise' is too negative, making the model temperature less than 0 K.
Error found by spectre in `pwm_sourcev2':`toplevel.analog_network_inst.XX8', in `worklib__ANALOG_NETWORK__spice_skeleton__0x10000001':`toplevel.analog_network_inst', in `worklib__toplevel__v':`toplevel', during hierarchy flattening.
    ERROR (CMI-2049): toplevel.analog_network_inst.XX8.V1 of pwm_sourcev2: Value of `rise' should be greater than zero.
    ERROR (CMI-2049): toplevel.analog_network_inst.XX8.V1 of pwm_sourcev2: Value of `fall' should be greater than zero.
    ERROR (CMI-2049): toplevel.analog_network_inst.XX8.V2 of pwm_sourcev2: Value of `rise' should be greater than zero.
    ERROR (CMI-2049): toplevel.analog_network_inst.XX8.V2 of pwm_sourcev2: Value of `fall' should be greater than zero.

Time for EDB Visit::table model: CPU = 70.139 ms, elapsed = 69.9914 ms.
Time accumulated: CPU = 2.13886 s, elapsed = 75.0231 s (1m  15.0s).
Peak resident memory used = 218 Mbytes.


Time for EDB Visiting: CPU = 4.94506 s, elapsed = 1.81361 s.
Time accumulated: CPU = 6.96256 s, elapsed = 75.758 s (1m  15.8s).
Peak resident memory used = 219 Mbytes.


Aggregate audit (6:11:31 PM, Sat Nov 21, 2020):
Time used: CPU = 6.96 s, elapsed = 75.8 s (1m  15.8s), util. = 9.19%.
Time spent in licensing: elapsed = 14.2 ms.
Peak memory used = 219 Mbytes.
Simulation started at: 6:10:15 PM, Sat Nov 21, 2020, ended at: 6:11:31 PM, Sat Nov 21, 2020, with elapsed time (wall clock): 75.8 s (1m  15.8s).
spectre completes with 19 errors, 62 warnings, and 36 notices.
spectre terminated prematurely due to fatal error.
xmsim: *E,RNALER: Simulation terminated due to analog error.
Memory Usage - Current physical: 218.8M, Current virtual: 1056.4M
CPU Usage - 0.4s system + 6.4s user = 6.8s total (9.0% cpu)
xcelium> ^C
xcelium> exit
TOOL:	xrun(64)	19.03-s013: Exiting on Nov 21, 2020 at 18:13:52 CET  (total: 00:03:43)
