xrun(64): 19.03-s013: (c) Copyright 1995-2019 Cadence Design Systems, Inc.
TOOL:	xrun(64)	19.03-s013: Started on Nov 30, 2020 at 18:18:17 CET
xrun
	./amsSim.scs
	-spectre_args "+ms ++aps=liberal"
	-f verilogFiles.f
		./Testbench.v
	-access +rwc
	-64bit
	-gui
	-s
Recompiling... reason: unable to stat '/.//users/micas/jvanassc/Vakantie Job Bram Veraverbeke 2020/swiptmixedsignalsim/Simvision_mixed_signal/Documentation/Analog_example_circuit_blank/Testbench.v'.
xrun: *N,SPCNTC: The program encountered one or more notices while processing the input SPICE file(s) in the AMSD flow. For details, see the following messages.
amsspice: *Notice (amsSim.scs,29): For the 'portmap' statement, assuming
	  'autobus=yes' as the default type in the AMSD control block flow.
amsspice: *Notice: Using external port-bind file: 'analog_network.pb'
		Caching library 'worklib' ....... Done
	Elaborating the design hierarchy:
	Top level design units:
		toplevel
	Discipline resolution Pass...
	Building instance overlay tables: .................... Done
	Building instance specific data structures.
	Loading native compiled code:     .................... Done
	Design hierarchy summary:
		                 Instances  Unique
		Modules:                 2       2
		Simulation timescale:  1ps
	Writing initial simulation snapshot: worklib.toplevel:v
	Starting analog simulation engine...
AMSD: Using spectre solver with arguments: -ahdllibdir xcelium.d/AMSD/ahdlSimDB +ms ++aps=liberal.

Spectre (R) Circuit Simulator
Version 18.1.0.394.isr8 64bit -- 11 Jun 2019
Copyright (C) 1989-2019 Cadence Design Systems, Inc. All rights reserved worldwide. Cadence and Spectre are registered trademarks of Cadence Design Systems, Inc. All others are the property of their respective holders.

Includes RSA BSAFE(R) Cryptographic or Security Protocol Software from RSA Security, Inc.

User: r0761743   Host: vierre64-tmp3.esat.kuleuven.be   HostID: 570AAE14   PID: 28265
Memory  available: 25.9830 GB  physical: 63.1554 GB
Linux   : CentOS Linux release 7.9.2009 (Core)
CPU Type: Intel Xeon Processor (Skylake)
All processors running at 2194.8 MHz
        Socket: Processors
        0:       0,  1
        1:       2,  3
        2:       4,  5
        3:       6,  7
        4:       8,  9
        5:      10, 11
        6:      12, 13
        7:      14, 15
        8:      16, 17
        
System load averages (1min, 5min, 15min) : 2.6 %, 1.2 %, 2.3 %
HPC is enabled


Analog Kernel using -ANALOGCONTROL  ./amsSim.scs.
Command line:
    spectre ./amsSim.scs +config  \
        /esat/micas-data/software/Cadence/xcelium_19.03/tools.lnx86/spectre/etc/configs/ams.cfg  \
        -ahdllibdir xcelium.d/AMSD/ahdlSimDB +ms ++aps=liberal
Reading file:  /users/students/r0761743/Eagle/Simvision/Global_T2/amsSim.scs

Notice from spectre during circuit read-in.
    Configuration file used: `/esat/micas-data/software/Cadence/xcelium_19.03/tools.lnx86/spectre/etc/configs/ams.cfg'.

Reading file:  /users/students/r0761743/Eagle/Simvision/Global_T2/xcelium.d/AMSD/ams_spice_in/generated_skeleton_amscb.skl_vams
Reading file:  /esat/micas-data/software/Cadence/xcelium_19.03/tools.lnx86/spectre/etc/configs/mapsubckt.cfg
Reading file:  /esat/micas-data/software/Cadence/xcelium_19.03/tools.lnx86/spectre/etc/configs/spectre.cfg
Reading file:  /users/students/r0761743/Eagle/Simvision/Global_T2/ANALOG_NETWORK.spi
Reading file:  /users/students/r0761743/Eagle/Simvision/Global_T2/DI_10A01.spi
Reading file:  /users/students/r0761743/Eagle/Simvision/Global_T2/LM7812.spi
Reading file:  /users/students/r0761743/Eagle/Simvision/Global_T2/OPA2344.spi
Reading file:  /users/students/r0761743/Eagle/Simvision/Global_T2/DI_BAV5004LP.spi
Reading file:  /users/students/r0761743/Eagle/Simvision/Global_T2/IR2110.spi
Reading file:  /users/students/r0761743/Eagle/Simvision/Global_T2/irfs_sl7440pbf.spi
Reading file:  /users/students/r0761743/Eagle/Simvision/Global_T2/ST_BAT48.spi
Reading file:  /users/students/r0761743/Eagle/Simvision/Global_T2/TLV2372.spi
Reading file:  /esat/micas-data/software/Cadence/xcelium_19.03/tools.lnx86/spectre/etc/configs/ms,ms#2.cfg
Reading file:  /esat/micas-data/software/Cadence/xcelium_19.03/tools.lnx86/spectre/etc/configs/ms,ms.cfg


Reading file:  /esat/micas-data/software/Cadence/xcelium_19.03/tools.lnx86/spectre/etc/configs/ams.cfg
Time for NDB Parsing: CPU = 233.671 ms, elapsed = 858.024 ms.
Time accumulated: CPU = 496.684 ms, elapsed = 858.03 ms.
Peak resident memory used = 101 Mbytes.

xcelium> 
-------------------------------------
Relinquished control to SimVision...

xcelium> source /esat/micas-data/software/Cadence/xcelium_19.03/tools/xcelium/files/xmsimrc
xcelium> # Restoring simulation environment...
xcelium> input -quiet .reinvoke.sim
xcelium> file delete .reinvoke.sim
xcelium> run
Reading link:  /esat/micas-data/software/Cadence/xcelium_19.03/tools.lnx86/spectre/etc/ahdl/discipline.h
Reading file:  /esat/micas-data/software/Cadence/xcelium_19.03/tools.lnx86/spectre/etc/ahdl/disciplines.vams
Reading link:  /esat/micas-data/software/Cadence/xcelium_19.03/tools.lnx86/spectre/etc/ahdl/constants.h
Reading file:  /esat/micas-data/software/Cadence/xcelium_19.03/tools.lnx86/spectre/etc/ahdl/constants.vams

Warning from spectre during hierarchy flattening.
    WARNING (SFE-30): "./ANALOG_NETWORK.spi" 11: Parameter `post', specified for primitive `options', has been ignored because it is an invalid instance parameter. Specify a valid instance parameter and rerun the simulation. Type `spectre -h options' to get more information on valid instance parameters.

Existing shared object for module bsource_33457b is up to date.
Installed compiled interface for bsource_33457b.
Existing shared object for module bsource_c2f010 is up to date.
Installed compiled interface for bsource_c2f010.
Existing shared object for module bsource_cf8dca is up to date.
Installed compiled interface for bsource_cf8dca.
Existing shared object for module bsource_79758d is up to date.
Installed compiled interface for bsource_79758d.
Existing shared object for module bsource_1477d0 is up to date.
Installed compiled interface for bsource_1477d0.
Existing shared object for module bsource_757ee0 is up to date.
Installed compiled interface for bsource_757ee0.
Existing shared object for module bsource_7a0313 is up to date.
Installed compiled interface for bsource_7a0313.
Existing shared object for module bsource_a478ed is up to date.
Installed compiled interface for bsource_a478ed.
Existing shared object for module bsource_b55d8c is up to date.
Installed compiled interface for bsource_b55d8c.
Existing shared object for module bsource_d8ebd4 is up to date.
Installed compiled interface for bsource_d8ebd4.

Warning from spectre during hierarchy flattening.
    WARNING (SFE-3012): The shorted instance toplevel.analog_network_inst.XX2.XU1.D_MD1_D4 is removed.
    WARNING (SFE-3012): The shorted instance toplevel.analog_network_inst.XX2.XU1.R_MD1_R2 is removed.
    WARNING (SFE-3013): The dangling instance toplevel.analog_network_inst.PVB_mm is removed.
    WARNING (SFE-3013): The dangling instance toplevel.analog_network_inst.PVB is removed.
    WARNING (SFE-3012): The shorted instance toplevel.analog_network_inst.XX2.XU6.D_MD1_D4 is removed.
    WARNING (SFE-3012): The shorted instance toplevel.analog_network_inst.XX2.XU6.R_MD1_R2 is removed.
    WARNING (SFE-3013): The dangling instance toplevel.analog_network_inst.XX8.D2 is removed.
    WARNING (SFE-3016): The floating node __cds_internal_stub_node__ is removed.
    WARNING (SFE-3015): The dangling node toplevel.analog_network_inst.Vbat is removed.
    WARNING (SFE-3015): The dangling node toplevel.analog_network_inst.pVbat is removed.
    WARNING (SFE-3015): The dangling node toplevel.analog_network_inst.Agnd is removed.

Time for Elaboration: CPU = 225.031 ms, elapsed = 3.80738 s.
Time accumulated: CPU = 721.854 ms, elapsed = 4.66555 s.
Peak resident memory used = 135 Mbytes.

Starting APS DC ...


Notice from spectre in `irfs_sl7440pbf':`toplevel.analog_network_inst.XX2.XU2', in `h_bridge':`toplevel.analog_network_inst.XX2', in `worklib__ANALOG_NETWORK__spice_skeleton__0x10000001':`toplevel.analog_network_inst', in `worklib__toplevel__v':`toplevel', during hierarchy flattening.
    toplevel.analog_network_inst.XX2.XU2.MM: The saturation channel conductance is zero in the model.  This could result in enormous gain and cause convergence or overflow problems.  Check the value of lambda or kappa.
Warning from spectre in `irfs_sl7440pbf':`toplevel.analog_network_inst.XX2.XU2', in `h_bridge':`toplevel.analog_network_inst.XX2', in `worklib__ANALOG_NETWORK__spice_skeleton__0x10000001':`toplevel.analog_network_inst', in `worklib__toplevel__v':`toplevel', during hierarchy flattening.
    WARNING (CMI-2316): toplevel.analog_network_inst.XX2.XU2.D1: Parasitic resistor `rs' has been deleted because its value of 1.43764 mOhm ( R / (Area * MFactor) ) was smaller than `minr'.
    WARNING (CMI-2316): toplevel.analog_network_inst.XX2.XU2.D3: Parasitic resistor `rs' has been deleted because its value of 3 uOhm ( R / (Area * MFactor) ) was smaller than `minr'.
Warning from spectre in `h_bridge':`toplevel.analog_network_inst.XX2', in `worklib__ANALOG_NETWORK__spice_skeleton__0x10000001':`toplevel.analog_network_inst', in `worklib__toplevel__v':`toplevel', during hierarchy flattening.
    WARNING (CMI-2362): toplevel.analog_network_inst.XX2.DI_BAV5004LP: The value of `vj(pb)' at T = 27 C is 55e-03 V, which is too small. Clamped to 100e-03 V.
    WARNING (CMI-2362): toplevel.analog_network_inst.XX2.DI_BAV5004LP: The value of `vj(pb)' at T = 27 C is 55e-03 V, which is too small. Clamped to 100e-03 V.
Notice from spectre in `OPA2344':`toplevel.analog_network_inst.XX7.XU1', in `dc_voltage':`toplevel.analog_network_inst.XX7', in `worklib__ANALOG_NETWORK__spice_skeleton__0x10000001':`toplevel.analog_network_inst', in `worklib__toplevel__v':`toplevel', during hierarchy flattening.
    toplevel.analog_network_inst.XX7.XU1.NOUT: `cgso' is not specified.  0.1um * Cox is used.
    toplevel.analog_network_inst.XX7.XU1.NOUT: `cgdo' is not specified.  0.1um * Cox is used.
    toplevel.analog_network_inst.XX7.XU1.POUT: `cgso' is not specified.  0.1um * Cox is used.
    toplevel.analog_network_inst.XX7.XU1.POUT: `cgdo' is not specified.  0.1um * Cox is used.
    toplevel.analog_network_inst.XX7.XU1.PIN: The saturation channel conductance is zero in the model.  This could result in enormous gain and cause convergence or overflow problems.  Check the value of lambda or kappa.
    toplevel.analog_network_inst.XX7.XU1.PIN: `cgso' is not specified.  0.1um * Cox is used.
        Further occurrences of this notice will be suppressed.
    toplevel.analog_network_inst.XX7.XU1.PIN: The saturation channel conductance is zero in the model.  This could result in enormous gain and cause convergence or overflow problems.  Check the value of lambda or kappa.
    toplevel.analog_network_inst.XX7.XU1.NIN: The saturation channel conductance is zero in the model.  This could result in enormous gain and cause convergence or overflow problems.  Check the value of lambda or kappa.
    toplevel.analog_network_inst.XX7.XU1.NIN: The saturation channel conductance is zero in the model.  This could result in enormous gain and cause convergence or overflow problems.  Check the value of lambda or kappa.
        Further occurrences of this notice will be suppressed.
Warning from spectre in `full_bridge_rect':`toplevel.analog_network_inst.XX4', in `worklib__ANALOG_NETWORK__spice_skeleton__0x10000001':`toplevel.analog_network_inst', in `worklib__toplevel__v':`toplevel', during hierarchy flattening.
    WARNING (CMI-2316): toplevel.analog_network_inst.XX4.D1: Parasitic resistor `rs' has been deleted because its value of 2.06 mOhm ( R / (Area * MFactor) ) was smaller than `minr'.
    WARNING (CMI-2316): toplevel.analog_network_inst.XX4.D2: Parasitic resistor `rs' has been deleted because its value of 2.06 mOhm ( R / (Area * MFactor) ) was smaller than `minr'.
    WARNING (CMI-2316): toplevel.analog_network_inst.XX4.D3: Parasitic resistor `rs' has been deleted because its value of 2.06 mOhm ( R / (Area * MFactor) ) was smaller than `minr'.
        Further occurrences of this warning will be suppressed.

Time for EDB Visit::table model: CPU = 91.228 ms, elapsed = 91.0833 ms.
Time accumulated: CPU = 841.16 ms, elapsed = 5.03247 s.
Peak resident memory used = 266 Mbytes.


Time for EDB Visiting: CPU = 6.90105 s, elapsed = 1.37362 s.
Time accumulated: CPU = 7.62303 s, elapsed = 6.03929 s.
Peak resident memory used = 266 Mbytes.


Notice from spectre.
    48 notices suppressed.
    2 warnings suppressed.
Warning from spectre.
    WARNING (XPS-1002): node toplevel.analog_network_inst.XX2.XU1.MD1_Trig1_3 has no driver
    WARNING (XPS-1002): node toplevel.analog_network_inst.XX2.XU1.MD1_Trig2_3 has no driver
    WARNING (XPS-1002): node toplevel.analog_network_inst.XX2.XU1.MD1_Trig3_3 has no driver
    WARNING (XPS-1002): node toplevel.analog_network_inst.XX2.XU6.MD1_Trig1_3 has no driver
    WARNING (XPS-1002): node toplevel.analog_network_inst.XX2.XU6.MD1_Trig2_3 has no driver
        Further occurrences of this warning will be suppressed.
    WARNING (XPS-1001): 8 nodes have no driver
    WARNING (XPS-1006): No digital partition identified.
Notice from spectre.
    Using Spectre APS mode because no digital content has been detected. Spectre mixed-signal mode has been disabled.



Warning from spectre.
    WARNING (CMI-2316): toplevel.analog_network_inst.XX4.D4: Parasitic resistor `rs' has been deleted because its value of 2.06 mOhm ( R / (Area * MFactor) ) was smaller than `minr'.
    WARNING (CMI-2316): toplevel.analog_network_inst.XX4.D3: Parasitic resistor `rs' has been deleted because its value of 2.06 mOhm ( R / (Area * MFactor) ) was smaller than `minr'.
    WARNING (CMI-2316): toplevel.analog_network_inst.XX4.D2: Parasitic resistor `rs' has been deleted because its value of 2.06 mOhm ( R / (Area * MFactor) ) was smaller than `minr'.
    WARNING (CMI-2316): toplevel.analog_network_inst.XX4.D1: Parasitic resistor `rs' has been deleted because its value of 2.06 mOhm ( R / (Area * MFactor) ) was smaller than `minr'.
    WARNING (CMI-2316): toplevel.analog_network_inst.XX2.XU5.D3: Parasitic resistor `rs' has been deleted because its value of 3 uOhm ( R / (Area * MFactor) ) was smaller than `minr'.
        Further occurrences of this warning will be suppressed.
    WARNING (CMI-2362): toplevel.analog_network_inst.XX2.DI_BAV5004LP: The value of `vj(pb)' at T = 27 C is 55e-03 V, which is too small. Clamped to 100e-03 V.
    WARNING (CMI-2362): toplevel.analog_network_inst.XX2.DI_BAV5004LP: The value of `vj(pb)' at T = 27 C is 55e-03 V, which is too small. Clamped to 100e-03 V.
Notice from spectre.
    toplevel.analog_network_inst.XX8.XU1.NSW: The saturation channel conductance is zero in the model.  This could result in enormous gain and cause convergence or overflow problems.  Check the value of lambda or kappa.
    toplevel.analog_network_inst.XX8.XU1.NSW: `cgso' is not specified.  0.1um * Cox is used.
    toplevel.analog_network_inst.XX8.XU1.NSW: `cgdo' is not specified.  0.1um * Cox is used.
    toplevel.analog_network_inst.XX8.XU1.PSW: The saturation channel conductance is zero in the model.  This could result in enormous gain and cause convergence or overflow problems.  Check the value of lambda or kappa.
    toplevel.analog_network_inst.XX8.XU1.PSW: `cgso' is not specified.  0.1um * Cox is used.
    toplevel.analog_network_inst.XX8.XU1.PSW: `cgdo' is not specified.  0.1um * Cox is used.
    toplevel.analog_network_inst.XX8.XU1.PEN: The saturation channel conductance is zero in the model.  This could result in enormous gain and cause convergence or overflow problems.  Check the value of lambda or kappa.
    toplevel.analog_network_inst.XX8.XU1.PEN: `cgso' is not specified.  0.1um * Cox is used.
        Further occurrences of this notice will be suppressed.
    toplevel.analog_network_inst.XX8.XU1.NEN: The saturation channel conductance is zero in the model.  This could result in enormous gain and cause convergence or overflow problems.  Check the value of lambda or kappa.
    toplevel.analog_network_inst.XX8.XU1.NIQS: The saturation channel conductance is zero in the model.  This could result in enormous gain and cause convergence or overflow problems.  Check the value of lambda or kappa.
        Further occurrences of this notice will be suppressed.
Warning from spectre.
    WARNING (SPECTRE-8281): `__cds_internal_stub_node__' is not a node nor an instance name.
    WARNING (SPECTRE-8286): Ignoring invalid item `__cds_internal_stub_node__' in save statement.
        Node is dangling or part of a dangling chain.
    WARNING (SPECTRE-8286): Ignoring invalid item `toplevel.analog_network_inst.Agnd' in save statement.
        Node is dangling or part of a dangling chain.
Notice from spectre.
    Number of thread was limited because of small circuit size.


Global user options:
      addflowsuffix = yes
        dotprobefmt = hier
               save = allpub

Scoped user options:

Circuit inventory:
              nodes 489
                bjt 22    
     bsource_7a0313 4     
     bsource_757ee0 2     
     bsource_1477d0 2     
     bsource_33457b 18    
     bsource_79758d 2     
     bsource_a478ed 8     
     bsource_b55d8c 4     
     bsource_c2f010 2     
     bsource_cf8dca 2     
     bsource_d8ebd4 4     
          capacitor 192   
               cccs 9     
              diode 91    
           inductor 5     
            isource 19    
               jfet 8     
               mos1 39    
    mutual_inductor 6     
              relay 190   
           resistor 450   
               vccs 20    
               vcvs 47    
            vsource 79    
               port 2     

Analysis and control statement inventory:
                 dc 1     
               tran 1     

Output statements:
             .probe 0     
           .measure 0     
               save 0     


Notice from spectre.
    8 resistors are shorted because their absolute value is less than or equal to 'rabsshort'.
    5 vsources are short because their absolute value is less than or equal to 'vabsshort'.
    Multithreading Enabled: 3 threads in the system with 18 available processors.
    Fast APS Enabled ( ++aps ).

Time for parsing: CPU = 130.048 ms, elapsed = 131.578 ms.
Time accumulated: CPU = 7.75318 s, elapsed = 6.17097 s.
Peak resident memory used = 275 Mbytes.

~~~~~~~~~~~~~~~~~~~~~~
Pre-Simulation Summary
~~~~~~~~~~~~~~~~~~~~~~
   -   MS Table model. VDD=5V used for XPS table model creation, to overwrite 
                 tmopt options vdd=val
   -   MS Circuit partitions: 0% transistors and 0% nodes are identified as digital partitions.
             One of the following solutions may improve the digital detection.
                 Manually define internal digital power supply nodes and voltages.
                        opt1 options ms_vpn=[VDD_DIG 1.2 VDD_DIG1 3.3]
                        opt2 options ms_vgnd=[VSS]
                 For complex device models use the MS macro model option.
                        opt3 options macro_mos=[pmos_subckt nmos_subckt]
                 Use the cktpreset=digital option to force subcircuits into digital.
                        opt4 options cktpreset=digital subckt=[subckt_def_name]
                        opt5 options cktpreset=digital inst=[subckt_inst_name]
~~~~~~~~~~~~~~~~~~~~~~

Notice from spectre.
    28 notices suppressed.
    11 warnings suppressed.
Warning from spectre.
    WARNING (SPECTRE-16830): The 'DCsim' analysis of type 'dc' is skipped in XPS flow.
    WARNING (SPECTRE-16518): Arithmetic exception in analysis `DCsim' .

Total time required for dc analysis `DCsim': CPU = 157 us, elapsed = 116.825 us.
Time accumulated: CPU = 7.76584 s, elapsed = 6.1837 s.
Peak resident memory used = 276 Mbytes.


Warning from spectre.
    WARNING (CMI-2015): Unable to open ic file `./amsSim.apsdc'.
        No such file or directory.


**************************************************
Transient Analysis `Transim': time = (0 s -> 6 ms)
**************************************************

Notice from spectre during IC analysis, during transient analysis `Transim'.
    Bad pivoting is found during DC analysis. Option dc_pivot_check=yes is recommended for possible improvement of convergence.
    toplevel.analog_network_inst.XX2.XU1.C_MD2_C1: Initial condition computed between nodes toplevel.analog_network_inst.vss and toplevel.analog_network_inst.XX2.XU1.MD3_DlyHS_2 is in error by 4.98009 mV.
    toplevel.analog_network_inst.XX2.XU1.C_MD2_C2: Initial condition computed between nodes toplevel.analog_network_inst.vss and toplevel.analog_network_inst.XX2.XU1.MD3_DlyLS_2 is in error by 1.25 V.
    toplevel.analog_network_inst.XX2.XU1.C_MD2_RS1_C2: Initial condition computed between nodes toplevel.analog_network_inst.vss and toplevel.analog_network_inst.XX2.XU1.MD2_Nor3a_3 is in error by 2.5 V.
    toplevel.analog_network_inst.XX2.XU1.C_MD2_RS2_C2: Initial condition computed between nodes toplevel.analog_network_inst.vss and toplevel.analog_network_inst.XX2.XU1.MD2_Nor3b_1 is in error by 2.5 uV.
    toplevel.analog_network_inst.XX2.XU1.C_MD4_RS_C2: Initial condition computed between nodes toplevel.analog_network_inst.vss and toplevel.analog_network_inst.XX2.XU1.MD4_Inv2_3 is in error by 2.5 V.
        Further occurrences of this notice will be suppressed.

Maximum value of each quantity, excluding Verilog-A modules and dangling current sources:
V: V(toplevel.analog_network_inst.XX8.XU1.100) = 57.86 V
I: I(toplevel.analog_network_inst.XX2.XU1.V_MD2_Inv1_V:p) = 2.5 A

Warning from spectre during IC analysis, during transient analysis `Transim'.
    WARNING (SPECTRE-17191): 
        Tolerance relaxation is used to obtain final DC solution which may affects the result accuracy. This is mainly caused by the high impedance nodes in the circuit. Use dyn_highz check to find out the high impedance nodes and then set appropriate initial values to these nodes will help both performance and accuracy in DC simulation.

DC simulation time: CPU = 40.423 ms, elapsed = 22.3641 ms.
Important parameter values:
    start = 0 s
    outputstart = 0 s
    stop = 6 ms
    step = 6 us
    maxstep = 120 us
    ic = all
    useprevic = no
    skipdc = no
    reltol = 10e-03
    abstol(V) = 1 uV
    abstol(I) = 1 pA
    temp = 27 C
    tnom = 27 C
    tempeffects = all
    errpreset = liberal
    method = trapgear2
    lteratio = 3.5
    relref = sigglobal
    cmin = 0 F
    gmin = 1 pS
    rabsshort = 1 mOhm
    compression = wildcardonly


Wildcard match summary:
              probe v(*) :               488   

Output and IC/nodeset summary:
                 save   79      (current)
                 save   495     (voltage)


Warning from spectre at time = 221.133 ns during transient analysis `Transim'.
    WARNING (CMI-2744): toplevel.analog_network_inst.XX2.D6: Junction current density(I/Area) exceeds `imelt'.  The results computed by Spectre(R) are now incorrect because the junction current model has been linearized.
    WARNING (CMI-2745): toplevel.analog_network_inst.XX2.D6: Junction current density(I/Area) exceeds `imax'.
Warning from spectre at time = 248.606 ns during transient analysis `Transim'.
    WARNING (CMI-2744): toplevel.analog_network_inst.XX2.XU5.D4: Junction current density(I/Area) exceeds `imelt'.  The results computed by Spectre(R) are now incorrect because the junction current model has been linearized.
    WARNING (CMI-2745): toplevel.analog_network_inst.XX2.XU5.D4: Junction current density(I/Area) exceeds `imax'.
    WARNING (CMI-2744): toplevel.analog_network_inst.XX2.XU5.D3: Junction current density(I/Area) exceeds `imelt'.  The results computed by Spectre(R) are now incorrect because the junction current model has been linearized.
    WARNING (CMI-2745): toplevel.analog_network_inst.XX2.XU5.D3: Junction current density(I/Area) exceeds `imax'.
Notice from spectre at time = 1.36745 us during transient analysis `Transim'.
    toplevel.analog_network_inst.XX2.D6: Junction leaves the linearized region.
    toplevel.analog_network_inst.XX2.D6: Junction current no longer exceeds `imax'.
Warning from spectre at time = 6.57825 us during transient analysis `Transim'.
    WARNING (CMI-2744): toplevel.analog_network_inst.XX2.XU3.D4: Junction current density(I/Area) exceeds `imelt'.  The results computed by Spectre(R) are now incorrect because the junction current model has been linearized.
    WARNING (CMI-2745): toplevel.analog_network_inst.XX2.XU3.D4: Junction current density(I/Area) exceeds `imax'.
Warning from spectre at time = 6.58297 us during transient analysis `Transim'.
    WARNING (CMI-2744): toplevel.analog_network_inst.XX2.XU3.D3: Junction current density(I/Area) exceeds `imelt'.  The results computed by Spectre(R) are now incorrect because the junction current model has been linearized.
        Further occurrences of this warning will be suppressed.
    WARNING (CMI-2745): toplevel.analog_network_inst.XX2.XU3.D3: Junction current density(I/Area) exceeds `imax'.
        Further occurrences of this warning will be suppressed.
Notice from spectre at time = 7.49063 us during transient analysis `Transim'.
    toplevel.analog_network_inst.XX2.D5: Junction leaves the linearized region.
    toplevel.analog_network_inst.XX2.D5: Junction current no longer exceeds `imax'.
Notice from spectre at time = 13.001 us during transient analysis `Transim'.
    toplevel.analog_network_inst.XX2.XU5.D4: Junction leaves the linearized region.
    toplevel.analog_network_inst.XX2.XU5.D4: Junction current no longer exceeds `imax'.
    toplevel.analog_network_inst.XX2.XU5.D3: Junction leaves the linearized region.
    toplevel.analog_network_inst.XX2.XU5.D3: Junction current no longer exceeds `imax'.
Notice from spectre at time = 19.3566 us during transient analysis `Transim'.
    toplevel.analog_network_inst.XX2.XU4.D4: Junction leaves the linearized region.
        Further occurrences of this notice will be suppressed.
    toplevel.analog_network_inst.XX2.XU4.D4: Junction current no longer exceeds `imax'.
        Further occurrences of this notice will be suppressed.
Notice from spectre at time = 2 ms during transient analysis `Transim'.
    The value of parameter 'Vbat' was set to 9.5 at time 0.002 s.
Warning from spectre at time = 2 ms during transient analysis `Transim'.
    WARNING (CMI-2316): toplevel.analog_network_inst.D1: Parasitic resistor `rs' has been deleted because its value of 2.06 mOhm ( R / (Area * MFactor) ) was smaller than `minr'.
    WARNING (CMI-2362): toplevel.analog_network_inst.XX2.DI_BAV5004LP: The value of `vj(pb)' at T = 27 C is 55e-03 V, which is too small. Clamped to 100e-03 V.
    WARNING (CMI-2316): toplevel.analog_network_inst.XX2.XU2.D1: Parasitic resistor `rs' has been deleted because its value of 1.43764 mOhm ( R / (Area * MFactor) ) was smaller than `minr'.
    WARNING (CMI-2316): toplevel.analog_network_inst.XX2.XU2.D3: Parasitic resistor `rs' has been deleted because its value of 3 uOhm ( R / (Area * MFactor) ) was smaller than `minr'.
    WARNING (CMI-2316): toplevel.analog_network_inst.XX4.D1: Parasitic resistor `rs' has been deleted because its value of 2.06 mOhm ( R / (Area * MFactor) ) was smaller than `minr'.
Notice from spectre at time = 2 ms during transient analysis `Transim'.
    toplevel.analog_network_inst.XX2.XU2.MM: The saturation channel conductance is zero in the model.  This could result in enormous gain and cause convergence or overflow problems.  Check the value of lambda or kappa.
    toplevel.analog_network_inst.XX7.XU1.PIN: The saturation channel conductance is zero in the model.  This could result in enormous gain and cause convergence or overflow problems.  Check the value of lambda or kappa.
    toplevel.analog_network_inst.XX7.XU1.NIN: The saturation channel conductance is zero in the model.  This could result in enormous gain and cause convergence or overflow problems.  Check the value of lambda or kappa.
    toplevel.analog_network_inst.XX8.XU1.POUT: The saturation channel conductance is zero in the model.  This could result in enormous gain and cause convergence or overflow problems.  Check the value of lambda or kappa.
    toplevel.analog_network_inst.XX8.XU1.NOUT: The saturation channel conductance is zero in the model.  This could result in enormous gain and cause convergence or overflow problems.  Check the value of lambda or kappa.
        Further occurrences of this notice will be suppressed.
Notice from spectre at time = 3 ms during transient analysis `Transim'.
    The value of parameter 'Vbat' was set to 11.5 at time 0.003 s.
Warning from spectre at time = 3 ms during transient analysis `Transim'.
    WARNING (CMI-2316): toplevel.analog_network_inst.D1: Parasitic resistor `rs' has been deleted because its value of 2.06 mOhm ( R / (Area * MFactor) ) was smaller than `minr'.
        Further occurrences of this warning will be suppressed.
    WARNING (CMI-2362): toplevel.analog_network_inst.XX2.DI_BAV5004LP: The value of `vj(pb)' at T = 27 C is 55e-03 V, which is too small. Clamped to 100e-03 V.
Notice from spectre at time = 4 ms during transient analysis `Transim'.
    The value of parameter 'Vbat' was set to 12 at time 0.004 s.
Warning from spectre at time = 4 ms during transient analysis `Transim'.
    WARNING (CMI-2362): toplevel.analog_network_inst.XX2.DI_BAV5004LP: The value of `vj(pb)' at T = 27 C is 55e-03 V, which is too small. Clamped to 100e-03 V.
Notice from spectre at time = 5 ms during transient analysis `Transim'.
    The value of parameter 'Vbat' was set to 12 at time 0.005 s.

The value of the paramerter, Vbat, is not changed.

The analog simulator has reached stop time, please use `analog -stop <new stop time>' to extend the analog stop time.
Simulation stopped via transient analysis stoptime at time 6 MS
Memory Usage - Current physical: 286.8M, Current virtual: 1153.7M
CPU Usage - 17.7s system + 146.5s user = 164.2s total (100.0% cpu)
xcelium> ^C
xcelium> exit
Number of accepted tran steps =             62436

Maximum value achieved for any signal of each quantity: 
V: V(toplevel.analog_network_inst.XX8.XU1.64) = 2.185 kV
I: I(toplevel.analog_network_inst.VBAT:p) = 260.6 A
Maximum value of each quantity, excluding Verilog-A modules or dangling current sources:
V: V(toplevel.analog_network_inst.XX3.N008) = 528.7 V
I: I(toplevel.analog_network_inst.VBAT:p) = 260.6 A
If your circuit contains signals of the same quantity that are vastly different in size (such as high voltage circuitry combined with low voltage control circuitry), you should consider specifying global option `bin_relref=yes'.

~~~~~~~~~~~~~~~~~~~~~~~~~~~~~~~~~
Post-Transient Simulation Summary
~~~~~~~~~~~~~~~~~~~~~~~~~~~~~~~~~
          adding +imr on command line may improve performance for this circuit
   -   The circuit contains signals of the voltage > 10V, consider to set highvoltage=yes to get better accuracy and convergence ability.
~~~~~~~~~~~~~~~~~~~~~~~~~~~~~~~~~


During simulation, the CPU load for active processors is :
        Spectre 14 (2.7 %)      15 (2.4 %)      
        Other    0 (2.1 %)       1 (2.2 %)       2 (2.3 %)       3 (2.6 %)
                 4 (2.3 %)       5 (2.4 %)       6 (2.3 %)       7 (2.2 %)
                 8 (2.4 %)       9 (2.5 %)      10 (2.3 %)      11 (2.3 %)
                12 (2.2 %)      13 (2.2 %)      16 (2.2 %)      17 (2.2 %)
Initial condition solution time: CPU = 40.552 ms, elapsed = 22.4769 ms.

**** AMSD: Mixed-Signal Activity Statistics ****
Number of A-to-D events:                       0
  Number of A-to-D events in IEs:              0
Number of D-to-A events:                       0
  Number of D-to-A events in IEs:              0
Number of VHDL-AMS Breaks:                     0


Notice from spectre during transient analysis `Transim'.
    The value of parameter 'Vbat' has been reset to the original value 11.
Warning from spectre during transient analysis `Transim'.
    WARNING (CMI-2362): toplevel.analog_network_inst.XX2.DI_BAV5004LP: The value of `vj(pb)' at T = 27 C is 55e-03 V, which is too small. Clamped to 100e-03 V.

Intrinsic tran analysis time:    CPU = 716.294 s, elapsed = 17.5931 ks.
Total time required for tran analysis `Transim': CPU = 716.37 s (11m  56.4s), elapsed = 17.5942 ks (4h 53m 14s).
Time accumulated: CPU = 724.144 s (12m  4.1s), elapsed = 17.6004 ks (4h 53m 20s).
Peak resident memory used = 292 Mbytes.


Notice from spectre.
    6100 notices suppressed.
    6077 warnings suppressed.
Simulation complete via transient analysis stoptime at time 6 MS


Aggregate audit (11:11:43 PM, Mon Nov 30, 2020):
Time used: CPU = 724 s (12m  4.2s), elapsed = 17.6 ks (4h 53m 20s), util. = 4.11%.
Time spent in licensing: elapsed = 13.8 ms.
Peak memory used = 292 Mbytes.
Simulation started at: 6:18:22 PM, Mon Nov 30, 2020, ended at: 11:11:43 PM, Mon Nov 30, 2020, with elapsed time (wall clock): 17.6 ks (4h 53m 20s).
spectre completes with 0 errors, 59 warnings, and 60 notices.
TOOL:	xrun(64)	19.03-s013: Exiting on Nov 30, 2020 at 23:11:43 CET  (total: 04:53:26)
