xrun(64): 19.03-s013: (c) Copyright 1995-2019 Cadence Design Systems, Inc.
TOOL:	xrun(64)	19.03-s013: Started on Dec 01, 2020 at 11:50:14 CET
xrun
	./amsSim.scs
	-spectre_args "+ms ++aps=liberal"
	-f verilogFiles.f
		./SwiptOut.v
		./Heartbeat.v
		./Counter.v
		./Freq.v
		./Testbench.v
	-access +rwc
	-64bit
	-gui
	-s
Recompiling... reason: file './Freq.v' is newer than expected.
	expected: Tue Dec  1 10:19:31 2020
	actual:   Tue Dec  1 11:50:08 2020
file: ./SwiptOut.v
	module worklib.SwiptOut:v
		errors: 0, warnings: 0
file: ./Freq.v
	module worklib.Freq:v
		errors: 0, warnings: 0
xrun: *N,SPCNTC: The program encountered one or more notices while processing the input SPICE file(s) in the AMSD flow. For details, see the following messages.
amsspice: *Notice (amsSim.scs,29): For the 'portmap' statement, assuming
	  'autobus=yes' as the default type in the AMSD control block flow.
amsspice: *Notice: Using external port-bind file: 'analog_network.pb'
		Caching library 'worklib' ....... Done
	Elaborating the design hierarchy:
	Top level design units:
		toplevel
					$display(freq);
					            |
xmelab: *W,CUVURH (./Freq.v,53|17): Undeclared identifier resolved hierarchically to toplevel.freq.
	Discipline resolution Pass...
	Doing auto-insertion of connection elements...
	Connect Rules applied are:
		ddiscrete_3_3_cr
	Building instance overlay tables: .................... Done
	Generating native compiled code:
		worklib.SwiptOut:v <0x3961c56c>
			streams:  24, words: 13113
		worklib.Freq:v <0x6271d09b>
			streams:  11, words:  7711
		worklib.toplevel:v <0x2befa0d3>
			streams:  20, words:  6890
	Building instance specific data structures.
	Loading native compiled code:     .................... Done
	Design hierarchy summary:
		                 Instances  Unique
		Modules:                10      27
		Verilog packages:        0       1
		Registers:              63     247
		Scalar wires:           32       -
		Vectored wires:          7       -
		Always blocks:          15      70
		Initial blocks:         27      83
		Cont. assignments:      10      35
		Pseudo assignments:      4       4
		Interconnect:            4       -
		Compilation units:       0       3
		Simulation timescale:  1ps
	Writing initial simulation snapshot: worklib.toplevel:v
Simulating in AMS-SIE mode...
	Starting analog simulation engine...
AMSD: Using spectre solver with arguments: -ahdllibdir xcelium.d/AMSD/ahdlSimDB +ms ++aps=liberal.

Spectre (R) Circuit Simulator
Version 18.1.0.394.isr8 64bit -- 11 Jun 2019
Copyright (C) 1989-2019 Cadence Design Systems, Inc. All rights reserved worldwide. Cadence and Spectre are registered trademarks of Cadence Design Systems, Inc. All others are the property of their respective holders.

Includes RSA BSAFE(R) Cryptographic or Security Protocol Software from RSA Security, Inc.

User: r0763954   Host: vierre64-tmp3.esat.kuleuven.be   HostID: 570AAE14   PID: 18184
Memory  available: 16.5456 GB  physical: 63.1554 GB
Linux   : CentOS Linux release 7.9.2009 (Core)
CPU Type: Intel Xeon Processor (Skylake)
All processors running at 2194.8 MHz
        Socket: Processors
        0:       0,  1
        1:       2,  3
        2:       4,  5
        3:       6,  7
        4:       8,  9
        5:      10, 11
        6:      12, 13
        7:      14, 15
        8:      16, 17
        
System load averages (1min, 5min, 15min) : 22.2 %, 19.0 %, 16.7 %
HPC is enabled


Analog Kernel using -ANALOGCONTROL  ./amsSim.scs.
Command line:
    spectre ./amsSim.scs +config  \
        /esat/micas-data/software/Cadence/xcelium_19.03/tools.lnx86/spectre/etc/configs/ams.cfg  \
        -ahdllibdir xcelium.d/AMSD/ahdlSimDB +ms ++aps=liberal
Reading file:  /users/students/r0763954/Documents/EAGLE2/Simvision/EAGLE2_verilog/amsSim.scs

Notice from spectre during circuit read-in.
    Configuration file used: `/esat/micas-data/software/Cadence/xcelium_19.03/tools.lnx86/spectre/etc/configs/ams.cfg'.

Reading file:  /users/students/r0763954/Documents/EAGLE2/Simvision/EAGLE2_verilog/xcelium.d/AMSD/ams_spice_in/generated_skeleton_amscb.skl_vams
Reading link:  /esat/micas-data/software/Cadence/xcelium_19.03/tools
Reading file:  /esat/micas-data/software/Cadence/xcelium_19.03/tools.lnx86/affirma_ams/etc/connect_lib/L2E_2.vams
Opening directory xcelium.d/AMSD/ahdlSimDB (775)
Opening directory xcelium.d/AMSD/ahdlSimDB/4682_tools_affirma_ams_etc_connect_lib_L2E_2.vams.connectLib__L2E_2__module__0x10000001_behavioral.ahdlcmi/ (775)
Opening directory xcelium.d/AMSD/ahdlSimDB/4682_tools_affirma_ams_etc_connect_lib_L2E_2.vams.connectLib__L2E_2__module__0x10000001_behavioral.ahdlcmi/Linux-64/ (775)
Reading file:  /users/students/r0763954/Documents/EAGLE2/Simvision/EAGLE2_verilog/xcelium.d/AMSD/ahdlSimDB/4682_tools_affirma_ams_etc_connect_lib_L2E_2.vams.connectLib__L2E_2__module__0x10000001_behavioral.ahdlcmi/Linux-64/obj/optimize/5.0/libahdlcmi_connectLib__L2E_2__module__0x10000001_behavioral.so
Installed compiled interface for connectLib__L2E_2__module__0x10000001_behavioral.
Reading file:  /users/students/r0763954/Documents/EAGLE2/Simvision/EAGLE2_verilog/Testbench.v
Reading file:  /esat/micas-data/software/Cadence/xcelium_19.03/tools.lnx86/spectre/etc/configs/mapsubckt.cfg
Reading file:  /esat/micas-data/software/Cadence/xcelium_19.03/tools.lnx86/spectre/etc/configs/spectre.cfg
Reading file:  /users/students/r0763954/Documents/EAGLE2/Simvision/H_bridge_testbench/ANALOG_NETWORK.spi
Reading file:  /users/students/r0763954/Documents/EAGLE2/Simvision/H_bridge_testbench/DI_10A01.spi
Reading file:  /users/students/r0763954/Documents/EAGLE2/Simvision/H_bridge_testbench/LM7812.spi
Reading file:  /users/students/r0763954/Documents/EAGLE2/Simvision/H_bridge_testbench/DI_BAV5004LP.spi
Reading file:  /users/students/r0763954/Documents/EAGLE2/Simvision/H_bridge_testbench/IR2110.spi
Reading file:  /users/students/r0763954/Documents/EAGLE2/Simvision/H_bridge_testbench/irfs_sl7440pbf.spi
Reading file:  /esat/micas-data/software/Cadence/xcelium_19.03/tools.lnx86/spectre/etc/configs/ms,ms#2.cfg
Reading file:  /esat/micas-data/software/Cadence/xcelium_19.03/tools.lnx86/spectre/etc/configs/ms,ms.cfg


Reading file:  /esat/micas-data/software/Cadence/xcelium_19.03/tools.lnx86/spectre/etc/configs/ams.cfg
Time for NDB Parsing: CPU = 328.54 ms, elapsed = 983.254 ms.
Time accumulated: CPU = 641.944 ms, elapsed = 983.26 ms.
Peak resident memory used = 96.1 Mbytes.

xcelium> 
xcelium> source /esat/micas-data/software/Cadence/xcelium_19.03/tools/xcelium/files/xmsimrc
xcelium> 
-------------------------------------
Relinquished control to SimVision...
# Restoring simulation environment...
xcelium> input -quiet .reinvoke.sim
xcelium> file delete .reinvoke.sim
xcelium> ^C
xcelium> exit
TOOL:	xrun(64)	19.03-s013: Exiting on Dec 01, 2020 at 11:51:10 CET  (total: 00:00:56)
