xrun(64): 19.03-s013: (c) Copyright 1995-2019 Cadence Design Systems, Inc.
TOOL:	xrun(64)	19.03-s013: Started on Dec 02, 2020 at 22:20:53 CET
xrun
	./amsSim.scs
	-spectre_args "+ms ++aps=liberal"
	-f verilogFiles.f
		./SwiptOut.v
		./Heartbeat.v
		./Counter.v
		./Freq.v
		./Testbench.v
	-access +rwc
	-64bit
	-gui
	-s
Recompiling... reason: file './Testbench.v' is newer than expected.
	expected: Wed Dec  2 22:16:51 2020
	actual:   Wed Dec  2 22:20:46 2020
file: ./Testbench.v
	module worklib.toplevel:v
		errors: 0, warnings: 0
xrun: *N,SPCNTC: The program encountered one or more notices while processing the input SPICE file(s) in the AMSD flow. For details, see the following messages.
amsspice: *Notice (amsSim.scs,29): For the 'portmap' statement, assuming
	  'autobus=yes' as the default type in the AMSD control block flow.
amsspice: *Notice: Using external port-bind file: 'analog_network.pb'
		Caching library 'worklib' ....... Done
	Elaborating the design hierarchy:
	Top level design units:
		toplevel
					$display(freq);
					            |
xmelab: *W,CUVURH (./Freq.v,53|17): Undeclared identifier resolved hierarchically to toplevel.freq.
	Discipline resolution Pass...
	Doing auto-insertion of connection elements...
	Connect Rules applied are:
		ddiscrete_3_3_cr
	Building instance overlay tables: .................... Done
	Generating native compiled code:
		worklib.Freq:v <0x08312947>
			streams:  11, words:  7874
		worklib.toplevel:v <0x14ee3551>
			streams:  30, words:  7990
	Building instance specific data structures.
	Loading native compiled code:     .................... Done
	Design hierarchy summary:
		                 Instances  Unique
		Modules:                22      27
		Verilog packages:        0       1
		Registers:             135     247
		Scalar wires:           66       -
		Vectored wires:         18       -
		Always blocks:          99      70
		Initial blocks:         39      83
		Cont. assignments:      32      45
		Pseudo assignments:      4       4
		Interconnect:           16       -
		Compilation units:       0       3
		Simulation timescale:  1ps
	Writing initial simulation snapshot: worklib.toplevel:v
Simulating in AMS-SIE mode...
	Starting analog simulation engine...
AMSD: Using spectre solver with arguments: -ahdllibdir xcelium.d/AMSD/ahdlSimDB +ms ++aps=liberal.

Spectre (R) Circuit Simulator
Version 18.1.0.394.isr8 64bit -- 11 Jun 2019
Copyright (C) 1989-2019 Cadence Design Systems, Inc. All rights reserved worldwide. Cadence and Spectre are registered trademarks of Cadence Design Systems, Inc. All others are the property of their respective holders.

Includes RSA BSAFE(R) Cryptographic or Security Protocol Software from RSA Security, Inc.

User: r0763954   Host: vierre64-tmp3.esat.kuleuven.be   HostID: 570AAE14   PID: 32205
Memory  available: 4.4423 GB  physical: 63.1554 GB
Linux   : CentOS Linux release 7.9.2009 (Core)
CPU Type: Intel Xeon Processor (Skylake)
All processors running at 2194.8 MHz
        Socket: Processors
        0:       0,  1
        1:       2,  3
        2:       4,  5
        3:       6,  7
        4:       8,  9
        5:      10, 11
        6:      12, 13
        7:      14, 15
        8:      16, 17
        
System load averages (1min, 5min, 15min) : 26.4 %, 22.4 %, 20.3 %
HPC is enabled


Analog Kernel using -ANALOGCONTROL  ./amsSim.scs.
Command line:
    spectre ./amsSim.scs +config  \
        /esat/micas-data/software/Cadence/xcelium_19.03/tools.lnx86/spectre/etc/configs/ams.cfg  \
        -ahdllibdir xcelium.d/AMSD/ahdlSimDB +ms ++aps=liberal
Reading file:  /users/students/r0763954/Documents/EAGLE2/Simvision/EAGLE2_verilog/amsSim.scs

Notice from spectre during circuit read-in.
    Configuration file used: `/esat/micas-data/software/Cadence/xcelium_19.03/tools.lnx86/spectre/etc/configs/ams.cfg'.

Reading file:  /users/students/r0763954/Documents/EAGLE2/Simvision/EAGLE2_verilog/xcelium.d/AMSD/ams_spice_in/generated_skeleton_amscb.skl_vams
Reading link:  /esat/micas-data/software/Cadence/xcelium_19.03/tools
Reading file:  /esat/micas-data/software/Cadence/xcelium_19.03/tools.lnx86/affirma_ams/etc/connect_lib/L2E_2.vams
Opening directory xcelium.d/AMSD/ahdlSimDB (775)
Opening directory xcelium.d/AMSD/ahdlSimDB/4682_tools_affirma_ams_etc_connect_lib_L2E_2.vams.connectLib__L2E_2__module__0x10000001_behavioral.ahdlcmi/ (775)
Opening directory xcelium.d/AMSD/ahdlSimDB/4682_tools_affirma_ams_etc_connect_lib_L2E_2.vams.connectLib__L2E_2__module__0x10000001_behavioral.ahdlcmi/Linux-64/ (775)
Reading file:  /users/students/r0763954/Documents/EAGLE2/Simvision/EAGLE2_verilog/xcelium.d/AMSD/ahdlSimDB/4682_tools_affirma_ams_etc_connect_lib_L2E_2.vams.connectLib__L2E_2__module__0x10000001_behavioral.ahdlcmi/Linux-64/obj/optimize/5.0/libahdlcmi_connectLib__L2E_2__module__0x10000001_behavioral.so
Installed compiled interface for connectLib__L2E_2__module__0x10000001_behavioral.
Reading file:  /esat/micas-data/software/Cadence/xcelium_19.03/tools.lnx86/affirma_ams/etc/connect_lib/E2L_2.vams
Opening directory xcelium.d/AMSD/ahdlSimDB (775)
Opening directory xcelium.d/AMSD/ahdlSimDB/4682_tools_affirma_ams_etc_connect_lib_E2L_2.vams.connectLib__E2L_2__module__0x10000001_behavioral.ahdlcmi/ (775)
Opening directory xcelium.d/AMSD/ahdlSimDB/4682_tools_affirma_ams_etc_connect_lib_E2L_2.vams.connectLib__E2L_2__module__0x10000001_behavioral.ahdlcmi/Linux-64/ (775)
Reading file:  /users/students/r0763954/Documents/EAGLE2/Simvision/EAGLE2_verilog/xcelium.d/AMSD/ahdlSimDB/4682_tools_affirma_ams_etc_connect_lib_E2L_2.vams.connectLib__E2L_2__module__0x10000001_behavioral.ahdlcmi/Linux-64/obj/optimize/5.0/libahdlcmi_connectLib__E2L_2__module__0x10000001_behavioral.so
Installed compiled interface for connectLib__E2L_2__module__0x10000001_behavioral.
Reading file:  /users/students/r0763954/Documents/EAGLE2/Simvision/EAGLE2_verilog/Testbench.v
Reading file:  /esat/micas-data/software/Cadence/xcelium_19.03/tools.lnx86/spectre/etc/configs/mapsubckt.cfg
Reading file:  /esat/micas-data/software/Cadence/xcelium_19.03/tools.lnx86/spectre/etc/configs/spectre.cfg
Reading file:  /users/students/r0763954/Documents/EAGLE2/Simvision/Global_T2_verilog/ANALOG_NETWORK.spi
Reading file:  /users/students/r0763954/Documents/EAGLE2/Simvision/Global_T2_verilog/DI_10A01.spi
Reading file:  /users/students/r0763954/Documents/EAGLE2/Simvision/Global_T2_verilog/LM7812.spi
Reading file:  /users/students/r0763954/Documents/EAGLE2/Simvision/Global_T2_verilog/Ideal_adc.spi
Reading file:  /users/students/r0763954/Documents/EAGLE2/Simvision/Global_T2_verilog/OPA2344.spi
Reading file:  /users/students/r0763954/Documents/EAGLE2/Simvision/Global_T2_verilog/DI_BAV5004LP.spi
Reading file:  /users/students/r0763954/Documents/EAGLE2/Simvision/Global_T2_verilog/IR2110.spi
Reading file:  /users/students/r0763954/Documents/EAGLE2/Simvision/Global_T2_verilog/irfs_sl7440pbf.spi
Reading file:  /users/students/r0763954/Documents/EAGLE2/Simvision/Global_T2_verilog/TLV2372.spi
Reading file:  /users/students/r0763954/Documents/EAGLE2/Simvision/Global_T2_verilog/ST_BAT48.spi
Reading file:  /esat/micas-data/software/Cadence/xcelium_19.03/tools.lnx86/spectre/etc/configs/ms,ms#2.cfg
Reading file:  /esat/micas-data/software/Cadence/xcelium_19.03/tools.lnx86/spectre/etc/configs/ms,ms.cfg


Reading file:  /esat/micas-data/software/Cadence/xcelium_19.03/tools.lnx86/spectre/etc/configs/ams.cfg
Time for NDB Parsing: CPU = 325.034 ms, elapsed = 968.036 ms.
Time accumulated: CPU = 636.718 ms, elapsed = 968.042 ms.
Peak resident memory used = 96.9 Mbytes.

xcelium> 
-------------------------------------
Relinquished control to SimVision...

xcelium> source /esat/micas-data/software/Cadence/xcelium_19.03/tools/xcelium/files/xmsimrc
xcelium> # Restoring simulation environment...
xcelium> input -quiet .reinvoke.sim
xcelium> file delete .reinvoke.sim
xcelium> run

Reading link:  /esat/micas-data/software/Cadence/xcelium_19.03/tools.lnx86/spectre/etc/ahdl/discipline.h
Reading file:  /esat/micas-data/software/Cadence/xcelium_19.03/tools.lnx86/spectre/etc/ahdl/disciplines.vams
Reading link:  /esat/micas-data/software/Cadence/xcelium_19.03/tools.lnx86/spectre/etc/ahdl/constants.h
Reading file:  /esat/micas-data/software/Cadence/xcelium_19.03/tools.lnx86/spectre/etc/ahdl/constants.vams

Warning from spectre during hierarchy flattening.
    WARNING (SFE-30): "../Global_T2_verilog/ANALOG_NETWORK.spi" 11: Parameter `post', specified for primitive `options', has been ignored because it is an invalid instance parameter. Specify a valid instance parameter and rerun the simulation. Type `spectre -h options' to get more information on valid instance parameters.

Existing shared object for module bsource_33457b is up to date.
Installed compiled interface for bsource_33457b.
Existing shared object for module bsource_c2f010 is up to date.
Installed compiled interface for bsource_c2f010.
Existing shared object for module bsource_cf8dca is up to date.
Installed compiled interface for bsource_cf8dca.
Existing shared object for module bsource_79758d is up to date.
Installed compiled interface for bsource_79758d.
Existing shared object for module bsource_1477d0 is up to date.
Installed compiled interface for bsource_1477d0.
Existing shared object for module bsource_757ee0 is up to date.
Installed compiled interface for bsource_757ee0.
Existing shared object for module bsource_7a0313 is up to date.
Installed compiled interface for bsource_7a0313.
Existing shared object for module bsource_a478ed is up to date.
Installed compiled interface for bsource_a478ed.
Existing shared object for module bsource_b55d8c is up to date.
Installed compiled interface for bsource_b55d8c.
Existing shared object for module bsource_d8ebd4 is up to date.
Installed compiled interface for bsource_d8ebd4.
Existing shared object for module bsource_143f41 is up to date.
Installed compiled interface for bsource_143f41.
Existing shared object for module bsource_01a494 is up to date.
Installed compiled interface for bsource_01a494.
Existing shared object for module bsource_733596 is up to date.
Installed compiled interface for bsource_733596.

Warning from spectre during hierarchy flattening.
    WARNING (SFE-3013): The dangling instance toplevel.inst_ANALOG_NETWORK.PVB_mm is removed.
    WARNING (SFE-3013): The dangling instance toplevel.inst_ANALOG_NETWORK.PVB is removed.
    WARNING (SFE-3012): The shorted instance toplevel.inst_ANALOG_NETWORK.XX2.XU1.D_MD1_D4 is removed.
    WARNING (SFE-3012): The shorted instance toplevel.inst_ANALOG_NETWORK.XX2.XU1.R_MD1_R2 is removed.
    WARNING (SFE-3012): The shorted instance toplevel.inst_ANALOG_NETWORK.XX2.XU6.D_MD1_D4 is removed.
    WARNING (SFE-3012): The shorted instance toplevel.inst_ANALOG_NETWORK.XX2.XU6.R_MD1_R2 is removed.
    WARNING (SFE-3013): The dangling instance toplevel.inst_ANALOG_NETWORK.XX8.D2 is removed.
    WARNING (SFE-3016): The floating node __cds_internal_stub_node__ is removed.
    WARNING (SFE-3015): The dangling node toplevel.inst_ANALOG_NETWORK.Vbat is removed.
    WARNING (SFE-3015): The dangling node toplevel.inst_ANALOG_NETWORK.pVbat is removed.
    WARNING (SFE-3015): The dangling node toplevel.inst_ANALOG_NETWORK.Agnd is removed.

Time for Elaboration: CPU = 464.528 ms, elapsed = 13.7802 s.
Time accumulated: CPU = 1.10141 s, elapsed = 14.7484 s.
Peak resident memory used = 142 Mbytes.

Starting APS DC ...


Notice from spectre in `irfs_sl7440pbf':`toplevel.inst_ANALOG_NETWORK.XX2.XU2', in `h_bridge':`toplevel.inst_ANALOG_NETWORK.XX2', in `worklib__ANALOG_NETWORK__spice_skeleton__0x10000001':`toplevel.inst_ANALOG_NETWORK', in `worklib__toplevel__v__0x10000001':`toplevel', during hierarchy flattening.
    toplevel.inst_ANALOG_NETWORK.XX2.XU2.MM: The saturation channel conductance is zero in the model.  This could result in enormous gain and cause convergence or overflow problems.  Check the value of lambda or kappa.
Warning from spectre in `irfs_sl7440pbf':`toplevel.inst_ANALOG_NETWORK.XX2.XU2', in `h_bridge':`toplevel.inst_ANALOG_NETWORK.XX2', in `worklib__ANALOG_NETWORK__spice_skeleton__0x10000001':`toplevel.inst_ANALOG_NETWORK', in `worklib__toplevel__v__0x10000001':`toplevel', during hierarchy flattening.
    WARNING (CMI-2316): toplevel.inst_ANALOG_NETWORK.XX2.XU2.D1: Parasitic resistor `rs' has been deleted because its value of 1.43764 mOhm ( R / (Area * MFactor) ) was smaller than `minr'.
    WARNING (CMI-2316): toplevel.inst_ANALOG_NETWORK.XX2.XU2.D3: Parasitic resistor `rs' has been deleted because its value of 3 uOhm ( R / (Area * MFactor) ) was smaller than `minr'.
Warning from spectre in `h_bridge':`toplevel.inst_ANALOG_NETWORK.XX2', in `worklib__ANALOG_NETWORK__spice_skeleton__0x10000001':`toplevel.inst_ANALOG_NETWORK', in `worklib__toplevel__v__0x10000001':`toplevel', during hierarchy flattening.
    WARNING (CMI-2362): toplevel.inst_ANALOG_NETWORK.XX2.DI_BAV5004LP: The value of `vj(pb)' at T = 27 C is 55e-03 V, which is too small. Clamped to 100e-03 V.
    WARNING (CMI-2362): toplevel.inst_ANALOG_NETWORK.XX2.DI_BAV5004LP: The value of `vj(pb)' at T = 27 C is 55e-03 V, which is too small. Clamped to 100e-03 V.
Notice from spectre in `TLV2372':`toplevel.inst_ANALOG_NETWORK.XX7.XU1', in `dc_voltage':`toplevel.inst_ANALOG_NETWORK.XX7', in `worklib__ANALOG_NETWORK__spice_skeleton__0x10000001':`toplevel.inst_ANALOG_NETWORK', in `worklib__toplevel__v__0x10000001':`toplevel', during hierarchy flattening.
    toplevel.inst_ANALOG_NETWORK.XX7.XU1.NOUT: The saturation channel conductance is zero in the model.  This could result in enormous gain and cause convergence or overflow problems.  Check the value of lambda or kappa.
    toplevel.inst_ANALOG_NETWORK.XX7.XU1.NOUT: `cgso' is not specified.  0.1um * Cox is used.
    toplevel.inst_ANALOG_NETWORK.XX7.XU1.NOUT: `cgdo' is not specified.  0.1um * Cox is used.
    toplevel.inst_ANALOG_NETWORK.XX7.XU1.POUT: The saturation channel conductance is zero in the model.  This could result in enormous gain and cause convergence or overflow problems.  Check the value of lambda or kappa.
    toplevel.inst_ANALOG_NETWORK.XX7.XU1.POUT: `cgso' is not specified.  0.1um * Cox is used.
    toplevel.inst_ANALOG_NETWORK.XX7.XU1.POUT: `cgdo' is not specified.  0.1um * Cox is used.
    toplevel.inst_ANALOG_NETWORK.XX7.XU1.POUT: The saturation channel conductance is zero in the model.  This could result in enormous gain and cause convergence or overflow problems.  Check the value of lambda or kappa.
    toplevel.inst_ANALOG_NETWORK.XX7.XU1.PIN: The saturation channel conductance is zero in the model.  This could result in enormous gain and cause convergence or overflow problems.  Check the value of lambda or kappa.
        Further occurrences of this notice will be suppressed.
    toplevel.inst_ANALOG_NETWORK.XX7.XU1.PIN: `cgso' is not specified.  0.1um * Cox is used.
        Further occurrences of this notice will be suppressed.
Warning from spectre in `full_bridge_rect':`toplevel.inst_ANALOG_NETWORK.XX4', in `worklib__ANALOG_NETWORK__spice_skeleton__0x10000001':`toplevel.inst_ANALOG_NETWORK', in `worklib__toplevel__v__0x10000001':`toplevel', during hierarchy flattening.
    WARNING (CMI-2316): toplevel.inst_ANALOG_NETWORK.XX4.D1: Parasitic resistor `rs' has been deleted because its value of 2.06 mOhm ( R / (Area * MFactor) ) was smaller than `minr'.
    WARNING (CMI-2316): toplevel.inst_ANALOG_NETWORK.XX4.D2: Parasitic resistor `rs' has been deleted because its value of 2.06 mOhm ( R / (Area * MFactor) ) was smaller than `minr'.
    WARNING (CMI-2316): toplevel.inst_ANALOG_NETWORK.XX4.D3: Parasitic resistor `rs' has been deleted because its value of 2.06 mOhm ( R / (Area * MFactor) ) was smaller than `minr'.
        Further occurrences of this warning will be suppressed.

Time for EDB Visit::table model: CPU = 150.026 ms, elapsed = 149.884 ms.
Time accumulated: CPU = 1.28816 s, elapsed = 15.3245 s.
Peak resident memory used = 314 Mbytes.


Time for EDB Visiting: CPU = 9.96382 s, elapsed = 1.9107 s.
Time accumulated: CPU = 11.0654 s, elapsed = 16.6593 s.
Peak resident memory used = 315 Mbytes.


Notice from spectre.
    71 notices suppressed.
    2 warnings suppressed.
Warning from spectre.
    WARNING (XPS-1002): node toplevel.inst_ANALOG_NETWORK.inp has no driver
    WARNING (XPS-1002): node toplevel.inst_ANALOG_NETWORK.XX2.XU1.MD1_Trig1_3 has no driver
    WARNING (XPS-1002): node toplevel.inst_ANALOG_NETWORK.XX2.XU1.MD1_Trig2_3 has no driver
    WARNING (XPS-1002): node toplevel.inst_ANALOG_NETWORK.XX2.XU1.MD1_Trig3_3 has no driver
    WARNING (XPS-1002): node toplevel.inst_ANALOG_NETWORK.XX2.XU6.MD1_Trig1_3 has no driver
        Further occurrences of this warning will be suppressed.
    WARNING (XPS-1001): 11 nodes have no driver
    WARNING (XPS-1006): No digital partition identified.
Notice from spectre.
    Using Spectre APS mode because no digital content has been detected. Spectre mixed-signal mode has been disabled.



Warning from spectre.
    WARNING (CMI-2316): toplevel.inst_ANALOG_NETWORK.XX4.D4: Parasitic resistor `rs' has been deleted because its value of 2.06 mOhm ( R / (Area * MFactor) ) was smaller than `minr'.
    WARNING (CMI-2316): toplevel.inst_ANALOG_NETWORK.XX4.D3: Parasitic resistor `rs' has been deleted because its value of 2.06 mOhm ( R / (Area * MFactor) ) was smaller than `minr'.
    WARNING (CMI-2316): toplevel.inst_ANALOG_NETWORK.XX4.D2: Parasitic resistor `rs' has been deleted because its value of 2.06 mOhm ( R / (Area * MFactor) ) was smaller than `minr'.
    WARNING (CMI-2316): toplevel.inst_ANALOG_NETWORK.XX4.D1: Parasitic resistor `rs' has been deleted because its value of 2.06 mOhm ( R / (Area * MFactor) ) was smaller than `minr'.
    WARNING (CMI-2316): toplevel.inst_ANALOG_NETWORK.XX2.XU5.D3: Parasitic resistor `rs' has been deleted because its value of 3 uOhm ( R / (Area * MFactor) ) was smaller than `minr'.
        Further occurrences of this warning will be suppressed.
    WARNING (CMI-2362): toplevel.inst_ANALOG_NETWORK.XX2.DI_BAV5004LP: The value of `vj(pb)' at T = 27 C is 55e-03 V, which is too small. Clamped to 100e-03 V.
    WARNING (CMI-2362): toplevel.inst_ANALOG_NETWORK.XX2.DI_BAV5004LP: The value of `vj(pb)' at T = 27 C is 55e-03 V, which is too small. Clamped to 100e-03 V.
Notice from spectre.
    toplevel.inst_ANALOG_NETWORK.XX8.XU1.NSW: The saturation channel conductance is zero in the model.  This could result in enormous gain and cause convergence or overflow problems.  Check the value of lambda or kappa.
    toplevel.inst_ANALOG_NETWORK.XX8.XU1.NSW: `cgso' is not specified.  0.1um * Cox is used.
    toplevel.inst_ANALOG_NETWORK.XX8.XU1.NSW: `cgdo' is not specified.  0.1um * Cox is used.
    toplevel.inst_ANALOG_NETWORK.XX8.XU1.PSW: The saturation channel conductance is zero in the model.  This could result in enormous gain and cause convergence or overflow problems.  Check the value of lambda or kappa.
    toplevel.inst_ANALOG_NETWORK.XX8.XU1.PSW: `cgso' is not specified.  0.1um * Cox is used.
    toplevel.inst_ANALOG_NETWORK.XX8.XU1.PSW: `cgdo' is not specified.  0.1um * Cox is used.
    toplevel.inst_ANALOG_NETWORK.XX8.XU1.PEN: The saturation channel conductance is zero in the model.  This could result in enormous gain and cause convergence or overflow problems.  Check the value of lambda or kappa.
    toplevel.inst_ANALOG_NETWORK.XX8.XU1.PEN: `cgso' is not specified.  0.1um * Cox is used.
        Further occurrences of this notice will be suppressed.
    toplevel.inst_ANALOG_NETWORK.XX8.XU1.NEN: The saturation channel conductance is zero in the model.  This could result in enormous gain and cause convergence or overflow problems.  Check the value of lambda or kappa.
    toplevel.inst_ANALOG_NETWORK.XX8.XU1.NIQS: The saturation channel conductance is zero in the model.  This could result in enormous gain and cause convergence or overflow problems.  Check the value of lambda or kappa.
        Further occurrences of this notice will be suppressed.
Warning from spectre.
    WARNING (SPECTRE-8281): `__cds_internal_stub_node__' is not a node nor an instance name.
    WARNING (SPECTRE-8286): Ignoring invalid item `__cds_internal_stub_node__' in save statement.
        Node is dangling or part of a dangling chain.
    WARNING (SPECTRE-8286): Ignoring invalid item `toplevel.inst_ANALOG_NETWORK.Agnd' in save statement.
        Node is dangling or part of a dangling chain.
Notice from spectre during topology check.
    Only one connection to the following 13 nodes:
        toplevel.inst_ANALOG_NETWORK.inp
        toplevel.inst_ANALOG_NETWORK.vout0
        toplevel.inst_ANALOG_NETWORK.vout1
        toplevel.inst_ANALOG_NETWORK.vout2
        toplevel.inst_ANALOG_NETWORK.vout3
        Further occurrences of this notice will be suppressed.
    No DC path from node `toplevel.inst_ANALOG_NETWORK.inp' to ground, Gmin installed to provide path.


Global user options:
      addflowsuffix = yes
        dotprobefmt = hier
               save = allpub

Scoped user options:

Circuit inventory:
              nodes 590
                bjt 22    
     bsource_01a494 33    
     bsource_7a0313 4     
     bsource_143f41 3     
     bsource_757ee0 5     
     bsource_1477d0 2     
     bsource_33457b 18    
     bsource_79758d 2     
     bsource_733596 33    
     bsource_a478ed 8     
     bsource_b55d8c 4     
     bsource_c2f010 2     
     bsource_cf8dca 2     
     bsource_d8ebd4 4     
          capacitor 197   
               cccs 9     
connectLib__E2L_2__module__0x10000001_behavioral 12    
connectLib__L2E_2__module__0x10000001_behavioral 4     
              diode 92    
           inductor 6     
            isource 18    
               jfet 8     
               mos1 48    
    mutual_inductor 6     
              relay 190   
           resistor 480   
               vccs 24    
               vcvs 50    
            vsource 85    
               port 2     

Analysis and control statement inventory:
                 dc 1     
               tran 1     

Output statements:
             .probe 0     
           .measure 0     
               save 5     


Notice from spectre.
    8 resistors are shorted because their absolute value is less than or equal to 'rabsshort'.
    8 vsources are short because their absolute value is less than or equal to 'vabsshort'.
    Multithreading Enabled: 8 threads in the system with 18 available processors.
    Fast APS Enabled ( ++aps ).

Time for parsing: CPU = 179.999 ms, elapsed = 181.342 ms.
Time accumulated: CPU = 11.2456 s, elapsed = 16.8408 s.
Peak resident memory used = 324 Mbytes.

~~~~~~~~~~~~~~~~~~~~~~
Pre-Simulation Summary
~~~~~~~~~~~~~~~~~~~~~~
   -   MS Table model. VDD=5V used for XPS table model creation, to overwrite 
                 tmopt options vdd=val
   -   MS Circuit partitions: 0% transistors and 0% nodes are identified as digital partitions.
             One of the following solutions may improve the digital detection.
                 Manually define internal digital power supply nodes and voltages.
                        opt1 options ms_vpn=[VDD_DIG 1.2 VDD_DIG1 3.3]
                        opt2 options ms_vgnd=[VSS]
                 For complex device models use the MS macro model option.
                        opt3 options macro_mos=[pmos_subckt nmos_subckt]
                 Use the cktpreset=digital option to force subcircuits into digital.
                        opt4 options cktpreset=digital subckt=[subckt_def_name]
                        opt5 options cktpreset=digital inst=[subckt_inst_name]
~~~~~~~~~~~~~~~~~~~~~~

Notice from spectre.
    46 notices suppressed.
    14 warnings suppressed.
Warning from spectre.
    WARNING (SPECTRE-16830): The 'DCsim' analysis of type 'dc' is skipped in XPS flow.
    WARNING (SPECTRE-16518): Arithmetic exception in analysis `DCsim' .

Total time required for dc analysis `DCsim': CPU = 358 us, elapsed = 151.873 us.
Time accumulated: CPU = 11.2612 s, elapsed = 16.8568 s.
Peak resident memory used = 324 Mbytes.


Warning from spectre.
    WARNING (CMI-2015): Unable to open ic file `./amsSim.apsdc'.
        No such file or directory.


**************************************************
Transient Analysis `Transim': time = (0 s -> 1 ms)
**************************************************

Notice from spectre during IC analysis, during transient analysis `Transim'.
    toplevel.inst_ANALOG_NETWORK.XX2.XU1.C_MD2_C1: Initial condition computed between nodes toplevel.inst_ANALOG_NETWORK.vss and toplevel.inst_ANALOG_NETWORK.XX2.XU1.MD3_DlyHS_2 is in error by 4.98009 mV.
    toplevel.inst_ANALOG_NETWORK.XX2.XU1.C_MD2_C2: Initial condition computed between nodes toplevel.inst_ANALOG_NETWORK.vss and toplevel.inst_ANALOG_NETWORK.XX2.XU1.MD3_DlyLS_2 is in error by 1.25 V.
    toplevel.inst_ANALOG_NETWORK.XX2.XU1.C_MD2_RS1_C2: Initial condition computed between nodes toplevel.inst_ANALOG_NETWORK.vss and toplevel.inst_ANALOG_NETWORK.XX2.XU1.MD2_Nor3a_3 is in error by 2.5 V.
    toplevel.inst_ANALOG_NETWORK.XX2.XU1.C_MD2_RS2_C2: Initial condition computed between nodes toplevel.inst_ANALOG_NETWORK.vss and toplevel.inst_ANALOG_NETWORK.XX2.XU1.MD2_Nor3b_1 is in error by 2.5 uV.
    toplevel.inst_ANALOG_NETWORK.XX2.XU1.C_MD4_RS_C2: Initial condition computed between nodes toplevel.inst_ANALOG_NETWORK.vss and toplevel.inst_ANALOG_NETWORK.XX2.XU1.MD4_Inv2_3 is in error by 2.5 V.
        Further occurrences of this notice will be suppressed.

Maximum value of each quantity, excluding Verilog-A modules and dangling current sources:
V: V(toplevel.inst_ANALOG_NETWORK.XX8.XU1.100) = 57.86 V
I: I(toplevel.inst_ANALOG_NETWORK.XX2.XU1.V_MD2_Inv1_V:p) = 2.5 A
DC simulation time: CPU = 306.424 ms, elapsed = 125.498 ms.
Important parameter values:
    start = 0 s
    outputstart = 0 s
    stop = 1 ms
    step = 1 us
    maxstep = 20 us
    ic = all
    useprevic = no
    skipdc = no
    reltol = 10e-03
    abstol(V) = 1 uV
    abstol(I) = 1 pA
    temp = 27 C
    tnom = 27 C
    tempeffects = all
    errpreset = liberal
    method = trapgear2
    lteratio = 3.5
    relref = sigglobal
    cmin = 0 F
    gmin = 1 pS
    rabsshort = 1 mOhm
    compression = wildcardonly


Wildcard match summary:
              probe v(*) :               589   

Output and IC/nodeset summary:
                 save   83      (current)
                 save   609     (voltage)


Warning from spectre at time = 254.493 ns during transient analysis `Transim'.
    WARNING (CMI-2744): toplevel.inst_ANALOG_NETWORK.XX2.D6: Junction current density(I/Area) exceeds `imelt'.  The results computed by Spectre(R) are now incorrect because the junction current model has been linearized.
    WARNING (CMI-2745): toplevel.inst_ANALOG_NETWORK.XX2.D6: Junction current density(I/Area) exceeds `imax'.
Warning from spectre at time = 275.011 ns during transient analysis `Transim'.
    WARNING (CMI-2744): toplevel.inst_ANALOG_NETWORK.XX2.XU5.D4: Junction current density(I/Area) exceeds `imelt'.  The results computed by Spectre(R) are now incorrect because the junction current model has been linearized.
    WARNING (CMI-2745): toplevel.inst_ANALOG_NETWORK.XX2.XU5.D4: Junction current density(I/Area) exceeds `imax'.
    WARNING (CMI-2744): toplevel.inst_ANALOG_NETWORK.XX2.XU5.D3: Junction current density(I/Area) exceeds `imelt'.  The results computed by Spectre(R) are now incorrect because the junction current model has been linearized.
    WARNING (CMI-2745): toplevel.inst_ANALOG_NETWORK.XX2.XU5.D3: Junction current density(I/Area) exceeds `imax'.
Notice from spectre at time = 1.37072 us during transient analysis `Transim'.
    toplevel.inst_ANALOG_NETWORK.XX2.D6: Junction leaves the linearized region.
    toplevel.inst_ANALOG_NETWORK.XX2.D6: Junction current no longer exceeds `imax'.
Warning from spectre at time = 8.65168 us during transient analysis `Transim'.
    WARNING (CMI-2744): toplevel.inst_ANALOG_NETWORK.XX2.XU3.D4: Junction current density(I/Area) exceeds `imelt'.  The results computed by Spectre(R) are now incorrect because the junction current model has been linearized.
    WARNING (CMI-2745): toplevel.inst_ANALOG_NETWORK.XX2.XU3.D4: Junction current density(I/Area) exceeds `imax'.
Warning from spectre at time = 8.66241 us during transient analysis `Transim'.
    WARNING (CMI-2744): toplevel.inst_ANALOG_NETWORK.XX2.XU3.D3: Junction current density(I/Area) exceeds `imelt'.  The results computed by Spectre(R) are now incorrect because the junction current model has been linearized.
        Further occurrences of this warning will be suppressed.
    WARNING (CMI-2745): toplevel.inst_ANALOG_NETWORK.XX2.XU3.D3: Junction current density(I/Area) exceeds `imax'.
        Further occurrences of this warning will be suppressed.
Notice from spectre at time = 9.47953 us during transient analysis `Transim'.
    toplevel.inst_ANALOG_NETWORK.XX2.D5: Junction leaves the linearized region.
    toplevel.inst_ANALOG_NETWORK.XX2.D5: Junction current no longer exceeds `imax'.
Notice from spectre at time = 13.1078 us during transient analysis `Transim'.
    toplevel.inst_ANALOG_NETWORK.XX2.XU5.D4: Junction leaves the linearized region.
    toplevel.inst_ANALOG_NETWORK.XX2.XU5.D4: Junction current no longer exceeds `imax'.
    toplevel.inst_ANALOG_NETWORK.XX2.XU5.D3: Junction leaves the linearized region.
    toplevel.inst_ANALOG_NETWORK.XX2.XU5.D3: Junction current no longer exceeds `imax'.
Notice from spectre at time = 20.984 us during transient analysis `Transim'.
    toplevel.inst_ANALOG_NETWORK.XX2.XU4.D4: Junction leaves the linearized region.
        Further occurrences of this notice will be suppressed.
    toplevel.inst_ANALOG_NETWORK.XX2.XU4.D4: Junction current no longer exceeds `imax'.
        Further occurrences of this notice will be suppressed.
Right direction
No optimum
Right direction
No optimum
Right direction
No optimum

The analog simulator has reached stop time, please use `analog -stop <new stop time>' to extend the analog stop time.
Simulation stopped via transient analysis stoptime at time 1 MS
Memory Usage - Current physical: 334.8M, Current virtual: 1584.3M
CPU Usage - 39.9s system + 159.2s user = 199.1s total (100.0% cpu)
xcelium> ...Regained control from SimVision
-------------------------------------

xcelium> 
xmsim: *W,CMUSEX: Control-D in interactive input - one more to exit.
xcelium> exit

Number of accepted tran steps =             22854

Maximum value achieved for any signal of each quantity: 
V: V(toplevel.inst_ANALOG_NETWORK.XX8.XU1.63) = 2.188 kV
I: I(toplevel.inst_ANALOG_NETWORK.VBAT:p) = 25.02 A
Maximum value of each quantity, excluding Verilog-A modules or dangling current sources:
V: V(toplevel.inst_ANALOG_NETWORK.XX8.XU1.100) = 57.86 V
I: I(toplevel.inst_ANALOG_NETWORK.VBAT:p) = 25.02 A
If your circuit contains signals of the same quantity that are vastly different in size (such as high voltage circuitry combined with low voltage control circuitry), you should consider specifying global option `bin_relref=yes'.

~~~~~~~~~~~~~~~~~~~~~~~~~~~~~~~~~
Post-Transient Simulation Summary
~~~~~~~~~~~~~~~~~~~~~~~~~~~~~~~~~
          adding +imr on command line may improve performance for this circuit
   -   The circuit contains signals of the voltage > 10V, consider to set highvoltage=yes to get better accuracy and convergence ability.
~~~~~~~~~~~~~~~~~~~~~~~~~~~~~~~~~


During simulation, the CPU load for active processors is :
        Spectre 10 (26.3 %)     11 (23.1 %)     
        Other    0 (22.3 %)      1 (32.9 %)      2 (16.0 %)      3 (18.2 %)
                 4 (25.8 %)      5 (15.9 %)      6 (30.8 %)      7 (19.5 %)
                 8 (24.3 %)      9 (18.0 %)     12 (44.4 %)     13 (24.1 %)
                14 (27.4 %)     15 (18.6 %)     16 (15.7 %)     17 (15.6 %)
Initial condition solution time: CPU = 306.739 ms, elapsed = 125.665 ms.

**** AMSD: Mixed-Signal Activity Statistics ****
Number of A-to-D events:                   68107
  Number of A-to-D events in IEs:          68107
Number of D-to-A events:                     330
  Number of D-to-A events in IEs:            330
Number of VHDL-AMS Breaks:                     0

Intrinsic tran analysis time:    CPU = 202.502 s, elapsed = 579.906 s.
Total time required for tran analysis `Transim': CPU = 202.839 s (3m  22.8s), elapsed = 581.065 s (9m  41.1s).
Time accumulated: CPU = 214.122 s (3m  34.1s), elapsed = 597.945 s (9m  57.9s).
Peak resident memory used = 335 Mbytes.


Notice from spectre.
    1309 notices suppressed.
    1318 warnings suppressed.
Simulation complete via transient analysis stoptime at time 1 MS


Aggregate audit (10:30:57 PM, Wed Dec 2, 2020):
Time used: CPU = 214 s (3m  34.1s), elapsed = 598 s (9m  58.0s), util. = 35.8%.
Time spent in licensing: elapsed = 15.5 ms.
Peak memory used = 336 Mbytes.
Simulation started at: 10:20:59 PM, Wed Dec 2, 2020, ended at: 10:30:57 PM, Wed Dec 2, 2020, with elapsed time (wall clock): 598 s (9m  58.0s).
spectre completes with 0 errors, 50 warnings, and 49 notices.
TOOL:	xrun(64)	19.03-s013: Exiting on Dec 02, 2020 at 22:30:57 CET  (total: 00:10:04)
