xrun(64): 19.03-s013: (c) Copyright 1995-2019 Cadence Design Systems, Inc.
TOOL:	xrun(64)	19.03-s013: Started on Nov 23, 2020 at 15:29:06 CET
xrun
	./amsSim.scs
	-spectre_args "+ms ++aps=liberal"
	-f verilogFiles.f
		./Testbench.v
	-access +rwc
	-64bit
	-gui
Recompiling... reason: unable to stat '/.//users/micas/jvanassc/Vakantie Job Bram Veraverbeke 2020/swiptmixedsignalsim/Simvision_mixed_signal/Documentation/Analog_example_circuit_blank/Testbench.v'.
xrun: *N,SPCNTC: The program encountered one or more notices while processing the input SPICE file(s) in the AMSD flow. For details, see the following messages.
amsspice: *Notice (amsSim.scs,29): For the 'portmap' statement, assuming
	  'autobus=yes' as the default type in the AMSD control block flow.
amsspice: *Notice: Using external port-bind file: 'analog_network.pb'
		Caching library 'worklib' ....... Done
	Elaborating the design hierarchy:
	Top level design units:
		toplevel
	Discipline resolution Pass...
	Building instance overlay tables: .................... Done
	Building instance specific data structures.
	Loading native compiled code:     .................... Done
	Design hierarchy summary:
		                 Instances  Unique
		Modules:                 2       2
		Simulation timescale:  1ps
	Writing initial simulation snapshot: worklib.toplevel:v
	Starting analog simulation engine...
AMSD: Using spectre solver with arguments: -ahdllibdir xcelium.d/AMSD/ahdlSimDB +ms ++aps=liberal.

Spectre (R) Circuit Simulator
Version 18.1.0.394.isr8 64bit -- 11 Jun 2019
Copyright (C) 1989-2019 Cadence Design Systems, Inc. All rights reserved worldwide. Cadence and Spectre are registered trademarks of Cadence Design Systems, Inc. All others are the property of their respective holders.

Includes RSA BSAFE(R) Cryptographic or Security Protocol Software from RSA Security, Inc.

User: r0761743   Host: vierre64-tmp3.esat.kuleuven.be   HostID: 570AAE14   PID: 14650
Memory  available: 25.8074 GB  physical: 63.1282 GB
Linux   : CentOS Linux release 7.9.2009 (Core)
CPU Type: Intel Xeon Processor (Skylake)
All processors running at 2194.8 MHz
        Socket: Processors
        0:       0,  1
        1:       2,  3
        2:       4,  5
        3:       6,  7
        4:       8,  9
        5:      10, 11
        6:      12, 13
        7:      14, 15
        8:      16, 17
        
System load averages (1min, 5min, 15min) : 26.9 %, 20.8 %, 17.6 %
HPC is enabled


Analog Kernel using -ANALOGCONTROL  ./amsSim.scs.
Command line:
    spectre ./amsSim.scs +config  \
        /esat/micas-data/software/Cadence/xcelium_19.03/tools.lnx86/spectre/etc/configs/ams.cfg  \
        -ahdllibdir xcelium.d/AMSD/ahdlSimDB +ms ++aps=liberal
Reading file:  /users/students/r0761743/Eagle/Simvision/PWM_Source/amsSim.scs

Notice from spectre during circuit read-in.
    Configuration file used: `/esat/micas-data/software/Cadence/xcelium_19.03/tools.lnx86/spectre/etc/configs/ams.cfg'.

Reading file:  /users/students/r0761743/Eagle/Simvision/PWM_Source/xcelium.d/AMSD/ams_spice_in/generated_skeleton_amscb.skl_vams
Reading file:  /esat/micas-data/software/Cadence/xcelium_19.03/tools.lnx86/spectre/etc/configs/mapsubckt.cfg
Reading file:  /esat/micas-data/software/Cadence/xcelium_19.03/tools.lnx86/spectre/etc/configs/spectre.cfg
Reading file:  /users/students/r0761743/Eagle/Simvision/PWM_Source/ANALOG_NETWORK.spi
Reading file:  /esat/micas-data/software/Cadence/xcelium_19.03/tools.lnx86/spectre/etc/configs/ms,ms#2.cfg
Reading file:  /esat/micas-data/software/Cadence/xcelium_19.03/tools.lnx86/spectre/etc/configs/ms,ms.cfg


Reading file:  /esat/micas-data/software/Cadence/xcelium_19.03/tools.lnx86/spectre/etc/configs/ams.cfg
Time for NDB Parsing: CPU = 248.023 ms, elapsed = 877.81 ms.
Time accumulated: CPU = 752.266 ms, elapsed = 877.817 ms.
Peak resident memory used = 86.6 Mbytes.


-------------------------------------
Relinquished control to SimVision...
xcelium> 
xcelium> source /esat/micas-data/software/Cadence/xcelium_19.03/tools/xcelium/files/xmsimrc
xcelium> run

Warning from spectre during hierarchy flattening.
    WARNING (SFE-30): "./ANALOG_NETWORK.spi" 3: Parameter `post', specified for primitive `options', has been ignored because it is an invalid instance parameter. Specify a valid instance parameter and rerun the simulation. Type `spectre -h options' to get more information on valid instance parameters.

Time for Elaboration: CPU = 222.363 ms, elapsed = 8.66852 s.
Time accumulated: CPU = 974.837 ms, elapsed = 9.54655 s.
Peak resident memory used = 111 Mbytes.

Starting APS DC ...

Time for EDB Visit::table model: CPU = 2.192 ms, elapsed = 2.18964 ms.
Time accumulated: CPU = 986.51 ms, elapsed = 10.4663 s.
Peak resident memory used = 114 Mbytes.


Time for EDB Visiting: CPU = 12.025 ms, elapsed = 920.14 ms.
Time accumulated: CPU = 987.039 ms, elapsed = 10.4669 s.
Peak resident memory used = 114 Mbytes.


Warning from spectre.
    WARNING (XPS-1007): No analog partition identified.



Global user options:
      addflowsuffix = yes
        dotprobefmt = hier
               save = allpub

Scoped user options:

Circuit inventory:
              nodes 7
               vcvs 2     
            vsource 4     

Analysis and control statement inventory:
                 dc 1     
               tran 1     

Output statements:
             .probe 0     
           .measure 0     
               save 0     


Notice from spectre.
    Multithreading Enabled: 8 threads in the system with 18 available processors.
    Spectre XPS Mixed-signal Mode Enabled ( ++aps speed=2 ).

Time for parsing: CPU = 5.833 ms, elapsed = 8.06618 ms.
Time accumulated: CPU = 992.951 ms, elapsed = 10.475 s.
Peak resident memory used = 116 Mbytes.

~~~~~~~~~~~~~~~~~~~~~~
Pre-Simulation Summary
~~~~~~~~~~~~~~~~~~~~~~
   -   MS Table model. VDD=0V used for XPS table model creation, to overwrite 
                 tmopt options vdd=val
   -   MS Circuit partitions: 0% transistors and 88.8% nodes are identified as digital partitions.
             One of the following solutions may improve the digital detection.
                 Manually define internal digital power supply nodes and voltages.
                        opt1 options ms_vpn=[VDD_DIG 1.2 VDD_DIG1 3.3]
                        opt2 options ms_vgnd=[VSS]
                 For complex device models use the MS macro model option.
                        opt3 options macro_mos=[pmos_subckt nmos_subckt]
                 Use the cktpreset=digital option to force subcircuits into digital.
                        opt4 options cktpreset=digital subckt=[subckt_def_name]
                        opt5 options cktpreset=digital inst=[subckt_inst_name]
~~~~~~~~~~~~~~~~~~~~~~

Warning from spectre.
    WARNING (SPECTRE-16830): The 'DCsim' analysis of type 'dc' is skipped in XPS flow.
    WARNING (SPECTRE-16518): Arithmetic exception in analysis `DCsim' .

Total time required for dc analysis `DCsim': CPU = 138 us, elapsed = 136.137 us.
Time accumulated: CPU = 1.0043 s, elapsed = 10.5006 s.
Peak resident memory used = 117 Mbytes.


Warning from spectre.
    WARNING (CMI-2015): Unable to open ic file `./amsSim.apsdc'.
        No such file or directory.


******************************************************
XPS Transient Analysis `Transim': time = (0 s -> 4 ms)
******************************************************
Important parameter values:
    start = 0 s
    outputstart = 0 s
    stop = 4 ms
    temp = 27 C
    tnom = 27 C
    vdd = 5 V

Wildcard match summary:
              probe v(*) :               6     

Output and IC/nodeset summary:
                 probe  6       

Time for dc init: CPU = 1.618 ms, elapsed = 2.36702 ms.
Time accumulated: CPU = 1.00602 s, elapsed = 10.503 s.
Peak resident memory used = 118 Mbytes.


Warning from spectre at time = 0 s during XPS Transient Analysis `Transim'.
    WARNING (CMI-2299): toplevel.analog_network_inst.V1:  The value for `rise' is smaller than the time tolerance (1 fs). The time steps may not fall exactly on the start or the end of this event and may result in inaccurate waveforms. The accuracy will depend on other time constants in the system. The time tolerance can be reduced by setting the`transres' parameter or reducing the stop time. The default tolerance is set to 1e-9*stop.
    WARNING (CMI-2299): toplevel.analog_network_inst.V1:  The value for `fall' is smaller than the time tolerance (1 fs). The time steps may not fall exactly on the start or the end of this event and may result in inaccurate waveforms. The accuracy will depend on other time constants in the system. The time tolerance can be reduced by setting the`transres' parameter or reducing the stop time. The default tolerance is set to 1e-9*stop.
    WARNING (CMI-2299): toplevel.analog_network_inst.V2:  The value for `rise' is smaller than the time tolerance (1 fs). The time steps may not fall exactly on the start or the end of this event and may result in inaccurate waveforms. The accuracy will depend on other time constants in the system. The time tolerance can be reduced by setting the`transres' parameter or reducing the stop time. The default tolerance is set to 1e-9*stop.
    WARNING (CMI-2299): toplevel.analog_network_inst.V2:  The value for `fall' is smaller than the time tolerance (1 fs). The time steps may not fall exactly on the start or the end of this event and may result in inaccurate waveforms. The accuracy will depend on other time constants in the system. The time tolerance can be reduced by setting the`transres' parameter or reducing the stop time. The default tolerance is set to 1e-9*stop.

Number of accepted tran time slots =             11966
Time for simulation: CPU = 538.557 ms, elapsed = 591.933 ms.
Time accumulated: CPU = 1.54471 s, elapsed = 11.0951 s.
Peak resident memory used = 123 Mbytes.

Total time required for tran analysis `Transim': CPU = 540.361 ms, elapsed = 594.486 ms.
Time accumulated: CPU = 1.5452 s, elapsed = 11.0959 s.
Peak resident memory used = 123 Mbytes.

Simulation complete via transient analysis stoptime at time 4 MS
Memory Usage - Current physical: 123.4M, Current virtual: 807.9M
CPU Usage - 0.6s system + 0.6s user = 1.3s total (6.8% cpu)
xcelium> ^C
xcelium> exit

Aggregate audit (3:35:56 PM, Mon Nov 23, 2020):
Time used: CPU = 8.51 s, elapsed = 392 s (6m  32.0s), util. = 2.17%.
Time spent in licensing: elapsed = 17.3 ms.
Peak memory used = 126 Mbytes.
Simulation started at: 3:29:24 PM, Mon Nov 23, 2020, ended at: 3:35:56 PM, Mon Nov 23, 2020, with elapsed time (wall clock): 392 s (6m  32.0s).
spectre completes with 0 errors, 9 warnings, and 4 notices.
TOOL:	xrun(64)	19.03-s013: Exiting on Nov 23, 2020 at 15:35:56 CET  (total: 00:06:50)
