xrun(64): 19.03-s013: (c) Copyright 1995-2019 Cadence Design Systems, Inc.
TOOL:	xrun(64)	19.03-s013: Started on Nov 21, 2020 at 18:22:26 CET
xrun
	./amsSim.scs
	-spectre_args "+ms ++aps=liberal"
	-f verilogFiles.f
		./Testbench.v
	-access +rwc
	-64bit
	-gui
	-s
Recompiling... reason: unable to stat '/.//users/micas/jvanassc/Vakantie Job Bram Veraverbeke 2020/swiptmixedsignalsim/Simvision_mixed_signal/Documentation/Analog_example_circuit_blank/Testbench.v'.
xrun: *N,SPCNTC: The program encountered one or more notices while processing the input SPICE file(s) in the AMSD flow. For details, see the following messages.
amsspice: *Notice (amsSim.scs,29): For the 'portmap' statement, assuming
	  'autobus=yes' as the default type in the AMSD control block flow.
amsspice: *Notice: Using external port-bind file: 'analog_network.pb'
		Caching library 'worklib' ....... Done
	Elaborating the design hierarchy:
	Top level design units:
		toplevel
	Discipline resolution Pass...
	Building instance overlay tables: .................... Done
	Building instance specific data structures.
	Loading native compiled code:     .................... Done
	Design hierarchy summary:
		                 Instances  Unique
		Modules:                 2       2
		Simulation timescale:  1ps
	Writing initial simulation snapshot: worklib.toplevel:v
	Starting analog simulation engine...
AMSD: Using spectre solver with arguments: -ahdllibdir xcelium.d/AMSD/ahdlSimDB +ms ++aps=liberal.

Spectre (R) Circuit Simulator
Version 18.1.0.394.isr8 64bit -- 11 Jun 2019
Copyright (C) 1989-2019 Cadence Design Systems, Inc. All rights reserved worldwide. Cadence and Spectre are registered trademarks of Cadence Design Systems, Inc. All others are the property of their respective holders.

Includes RSA BSAFE(R) Cryptographic or Security Protocol Software from RSA Security, Inc.

User: r0761743   Host: vierre64-tmp3.esat.kuleuven.be   HostID: 570AAE14   PID: 10845
Memory  available: 3.9805 GB  physical: 63.1554 GB
Linux   : CentOS Linux release 7.9.2009 (Core)
CPU Type: Intel Xeon Processor (Skylake)
All processors running at 2194.8 MHz
        Socket: Processors
        0:       0,  1
        1:       2,  3
        2:       4,  5
        3:       6,  7
        4:       8,  9
        5:      10, 11
        6:      12, 13
        7:      14, 15
        8:      16, 17
        
System load averages (1min, 5min, 15min) : 13.9 %, 14.1 %, 14.8 %
HPC is enabled


Analog Kernel using -ANALOGCONTROL  ./amsSim.scs.
Command line:
    spectre ./amsSim.scs +config  \
        /esat/micas-data/software/Cadence/xcelium_19.03/tools.lnx86/spectre/etc/configs/ams.cfg  \
        -ahdllibdir xcelium.d/AMSD/ahdlSimDB +ms ++aps=liberal
Reading file:  /users/students/r0761743/Eagle/Simvision/PWM_Source/amsSim.scs

Notice from spectre during circuit read-in.
    Configuration file used: `/esat/micas-data/software/Cadence/xcelium_19.03/tools.lnx86/spectre/etc/configs/ams.cfg'.

Reading file:  /users/students/r0761743/Eagle/Simvision/PWM_Source/xcelium.d/AMSD/ams_spice_in/generated_skeleton_amscb.skl_vams
Reading file:  /esat/micas-data/software/Cadence/xcelium_19.03/tools.lnx86/spectre/etc/configs/mapsubckt.cfg
Reading file:  /esat/micas-data/software/Cadence/xcelium_19.03/tools.lnx86/spectre/etc/configs/spectre.cfg
Reading file:  /users/students/r0761743/Eagle/Simvision/PWM_Source/ANALOG_NETWORK.spi
Reading file:  /esat/micas-data/software/Cadence/xcelium_19.03/tools.lnx86/spectre/etc/configs/ms,ms#2.cfg
Reading file:  /esat/micas-data/software/Cadence/xcelium_19.03/tools.lnx86/spectre/etc/configs/ms,ms.cfg


Reading file:  /esat/micas-data/software/Cadence/xcelium_19.03/tools.lnx86/spectre/etc/configs/ams.cfg
Time for NDB Parsing: CPU = 201.62 ms, elapsed = 791.455 ms.
Time accumulated: CPU = 463.938 ms, elapsed = 791.46 ms.
Peak resident memory used = 86.6 Mbytes.

xcelium> 
xcelium> source /esat/micas-data/software/Cadence/xcelium_19.03/tools/xcelium/files/xmsimrc
xcelium> 
-------------------------------------
Relinquished control to SimVision...
# Restoring simulation environment...
xcelium> input -quiet .reinvoke.sim
xcelium> file delete .reinvoke.sim
xcelium> run

Warning from spectre during hierarchy flattening.
    WARNING (SFE-30): "./ANALOG_NETWORK.spi" 3: Parameter `post', specified for primitive `options', has been ignored because it is an invalid instance parameter. Specify a valid instance parameter and rerun the simulation. Type `spectre -h options' to get more information on valid instance parameters.

Time for Elaboration: CPU = 129.341 ms, elapsed = 5.1729 s.
Time accumulated: CPU = 593.422 ms, elapsed = 5.9645 s.
Peak resident memory used = 111 Mbytes.

Starting APS DC ...

Time for EDB Visit::table model: CPU = 2.177 ms, elapsed = 2.17414 ms.
Time accumulated: CPU = 603.757 ms, elapsed = 6.21368 s.
Peak resident memory used = 114 Mbytes.


Time for EDB Visiting: CPU = 10.674 ms, elapsed = 249.528 ms.
Time accumulated: CPU = 604.247 ms, elapsed = 6.21418 s.
Peak resident memory used = 114 Mbytes.


Warning from spectre.
    WARNING (XPS-1007): No analog partition identified.



Global user options:
      addflowsuffix = yes
        dotprobefmt = hier
               save = allpub

Scoped user options:

Circuit inventory:
              nodes 7
               vcvs 2     
            vsource 4     

Analysis and control statement inventory:
                 dc 1     
               tran 1     

Output statements:
             .probe 0     
           .measure 0     
               save 0     


Notice from spectre.
    Multithreading Enabled: 8 threads in the system with 18 available processors.
    Spectre XPS Mixed-signal Mode Enabled ( ++aps speed=2 ).

Time for parsing: CPU = 7.064 ms, elapsed = 166.804 ms.
Time accumulated: CPU = 611.409 ms, elapsed = 6.38107 s.
Peak resident memory used = 116 Mbytes.

~~~~~~~~~~~~~~~~~~~~~~
Pre-Simulation Summary
~~~~~~~~~~~~~~~~~~~~~~
   -   MS Table model. VDD=0V used for XPS table model creation, to overwrite 
                 tmopt options vdd=val
   -   MS Circuit partitions: 0% transistors and 88.8% nodes are identified as digital partitions.
             One of the following solutions may improve the digital detection.
                 Manually define internal digital power supply nodes and voltages.
                        opt1 options ms_vpn=[VDD_DIG 1.2 VDD_DIG1 3.3]
                        opt2 options ms_vgnd=[VSS]
                 For complex device models use the MS macro model option.
                        opt3 options macro_mos=[pmos_subckt nmos_subckt]
                 Use the cktpreset=digital option to force subcircuits into digital.
                        opt4 options cktpreset=digital subckt=[subckt_def_name]
                        opt5 options cktpreset=digital inst=[subckt_inst_name]
~~~~~~~~~~~~~~~~~~~~~~

Warning from spectre.
    WARNING (SPECTRE-16830): The 'DCsim' analysis of type 'dc' is skipped in XPS flow.
    WARNING (SPECTRE-16518): Arithmetic exception in analysis `DCsim' .

Total time required for dc analysis `DCsim': CPU = 105 us, elapsed = 101.805 us.
Time accumulated: CPU = 622.174 ms, elapsed = 6.39258 s.
Peak resident memory used = 117 Mbytes.


Warning from spectre.
    WARNING (CMI-2015): Unable to open ic file `./amsSim.apsdc'.
        No such file or directory.


******************************************************
XPS Transient Analysis `Transim': time = (0 s -> 4 ms)
******************************************************
Important parameter values:
    start = 0 s
    outputstart = 0 s
    stop = 4 ms
    temp = 27 C
    tnom = 27 C
    vdd = 5 V

Wildcard match summary:
              probe v(*) :               6     

Output and IC/nodeset summary:
                 probe  6       

Time for dc init: CPU = 1.645 ms, elapsed = 2.39801 ms.
Time accumulated: CPU = 623.912 ms, elapsed = 6.39507 s.
Peak resident memory used = 118 Mbytes.


Warning from spectre at time = 0 s during XPS Transient Analysis `Transim'.
    WARNING (CMI-2299): toplevel.analog_network_inst.V1:  The value for `rise' is smaller than the time tolerance (1 fs). The time steps may not fall exactly on the start or the end of this event and may result in inaccurate waveforms. The accuracy will depend on other time constants in the system. The time tolerance can be reduced by setting the`transres' parameter or reducing the stop time. The default tolerance is set to 1e-9*stop.
    WARNING (CMI-2299): toplevel.analog_network_inst.V1:  The value for `fall' is smaller than the time tolerance (1 fs). The time steps may not fall exactly on the start or the end of this event and may result in inaccurate waveforms. The accuracy will depend on other time constants in the system. The time tolerance can be reduced by setting the`transres' parameter or reducing the stop time. The default tolerance is set to 1e-9*stop.
    WARNING (CMI-2299): toplevel.analog_network_inst.V2:  The value for `rise' is smaller than the time tolerance (1 fs). The time steps may not fall exactly on the start or the end of this event and may result in inaccurate waveforms. The accuracy will depend on other time constants in the system. The time tolerance can be reduced by setting the`transres' parameter or reducing the stop time. The default tolerance is set to 1e-9*stop.
    WARNING (CMI-2299): toplevel.analog_network_inst.V2:  The value for `fall' is smaller than the time tolerance (1 fs). The time steps may not fall exactly on the start or the end of this event and may result in inaccurate waveforms. The accuracy will depend on other time constants in the system. The time tolerance can be reduced by setting the`transres' parameter or reducing the stop time. The default tolerance is set to 1e-9*stop.

Number of accepted tran time slots =             11966
Time for simulation: CPU = 533.213 ms, elapsed = 750.791 ms.
Time accumulated: CPU = 1.15725 s, elapsed = 7.14598 s.
Peak resident memory used = 123 Mbytes.

Total time required for tran analysis `Transim': CPU = 535.163 ms, elapsed = 753.494 ms.
Time accumulated: CPU = 1.15815 s, elapsed = 7.16877 s.
Peak resident memory used = 123 Mbytes.

Simulation complete via transient analysis stoptime at time 4 MS
Memory Usage - Current physical: 123.4M, Current virtual: 808.0M
CPU Usage - 0.4s system + 0.6s user = 1.0s total (13.5% cpu)
xcelium> ^C
xcelium> exit

Aggregate audit (6:38:53 PM, Sat Nov 21, 2020):
Time used: CPU = 18.3 s, elapsed = 981 s (16m  21.2s), util. = 1.86%.
Time spent in licensing: elapsed = 13.6 ms.
Peak memory used = 126 Mbytes.
Simulation started at: 6:22:32 PM, Sat Nov 21, 2020, ended at: 6:38:53 PM, Sat Nov 21, 2020, with elapsed time (wall clock): 981 s (16m  21.2s).
spectre completes with 0 errors, 9 warnings, and 4 notices.
TOOL:	xrun(64)	19.03-s013: Exiting on Nov 21, 2020 at 18:38:53 CET  (total: 00:16:27)
